<?xml version="1.0" encoding="UTF-8"?>

<!-- generated on 2023-06-25 18:26:50.645846 by netdiff.py UNKNOWN
<configuration>
    <source value="porto-osm-geo.net.xml"/>
    <dest value="porto-fixed.net.xml"/>
    <outprefix value="diff"/>
</configuration>
-->

<edges version="1.16" xmlns:xsi="http://www.w3.org/2001/XMLSchema-instance" xsi:noNamespaceSchemaLocation="http://sumo.dlr.de/xsd/edgediff_file.xsd">
    <!-- Deleted Elements -->
    <!-- Created Elements -->
    <!-- Changed Elements -->
</edges>
