<?xml version="1.0" encoding="UTF-8"?>

<!-- generated on 2023-07-06 03:30:15.596225 by netdiff.py UNKNOWN
<configuration>
    <source value="porto-osm-geo.net.xml"/>
    <dest value="porto-fixed.net.xml"/>
    <outprefix value="diff"/>
</configuration>
-->

<edges version="1.16" xmlns:xsi="http://www.w3.org/2001/XMLSchema-instance" xsi:noNamespaceSchemaLocation="http://sumo.dlr.de/xsd/edgediff_file.xsd">
    <!-- Deleted Elements -->
    <!-- Created Elements -->
    <!-- Changed Elements -->
    <edge id="1165291408#0" shape="531315.95,4555983.36 531311.24,4556000.36 531308.89,4556010.40 531303.61,4556023.06"/>
    <edge id="167487371#0" shape="531300.13,4556022.45 531301.73,4556011.91 531301.53,4556008.83 531303.96,4555997.91 531307.71,4555982.89"/>
</edges>
