<?xml version="1.0" encoding="UTF-8"?>

<!-- generated on 2023-05-25 20:59:10.377739 by netdiff.py UNKNOWN
<configuration>
    <source value="porto-osm-geo.net.xml"/>
    <dest value="porto-fixed.net.xml"/>
    <outprefix value="diff"/>
</configuration>
-->

<connections version="1.16" xmlns:xsi="http://www.w3.org/2001/XMLSchema-instance" xsi:noNamespaceSchemaLocation="http://sumo.dlr.de/xsd/connections_file.xsd">
    <!-- Deleted Elements -->
    <delete from="1120859255" fromLane="2" to="1120859257" toLane="0"/>
    <delete from="1120859255" fromLane="2" to="1120859257" toLane="1"/>
    <delete from="1174333912" fromLane="1" to="859079009" toLane="0"/>
    <delete from="13799864#0" fromLane="1" to="13800268#0" toLane="0"/>
    <delete from="13800268#0" fromLane="0" to="47938035#0" toLane="0"/>
    <delete from="13800268#0" fromLane="1" to="167487378#0" toLane="0"/>
    <delete from="13800268#0" fromLane="2" to="167487378#0" toLane="1"/>
    <delete from="13800268#0" fromLane="2" to="47938035#0" toLane="1"/>
    <delete from="13800268#0" fromLane="2" to="1167615227" toLane="0"/>
    <delete from="160503755" fromLane="0" to="110801277#0" toLane="1"/>
    <delete from="35044072" fromLane="0" to="35474708" toLane="1"/>
    <delete from="386578487#0" fromLane="1" to="1174429371" toLane="1"/>
    <delete from="453493822#7" fromLane="0" to="-1174193045#1" toLane="0"/>
    <delete from="453764134#0" fromLane="2" to="859079008" toLane="2"/>
    <delete from="608418574#1" fromLane="1" to="741767467#0" toLane="0"/>
    <delete from="608418574#1" fromLane="2" to="741767467#0" toLane="1"/>
    <delete from="741767467#0" fromLane="1" to="608418577" toLane="0"/>
    <delete from="741767467#0" fromLane="2" to="608418577" toLane="1"/>
    <delete from="859079006" fromLane="0" to="386578584" toLane="0"/>
    <delete from="859079008" fromLane="1" to="859079007" toLane="0"/>
    <delete from="98835813#0" fromLane="0" to="859079006" toLane="0"/>
    <!-- Created Elements -->
    <connection from="1120859255" fromLane="1" to="1120859257" toLane="0" />
    <connection from="1120859255" fromLane="1" to="1120859257" toLane="1" />
    <connection from="1153365926#0" fromLane="1" to="1174333912" toLane="3" visibility="9.00"/>
    <connection from="1167613419#0" fromLane="0" to="1167615227" toLane="0" />
    <connection from="1174333912" fromLane="2" to="12386249#0" toLane="1" />
    <connection from="1174333912" fromLane="2" to="859079009" toLane="0" />
    <connection from="13798768" fromLane="1" to="13797988#0" toLane="1" />
    <connection from="13798803" fromLane="0" to="13798688" toLane="0" />
    <connection from="13799864#0" fromLane="1" to="13800268#0" toLane="2" />
    <connection from="13800268#0" fromLane="0" to="167487378#0" toLane="0" />
    <connection from="13800268#0" fromLane="1" to="167487378#0" toLane="1" />
    <connection from="13800268#0" fromLane="2" to="47938035#0" toLane="0" />
    <connection from="35044072" fromLane="1" to="35474708" toLane="1" />
    <connection from="35044072" fromLane="1" to="1120859255" toLane="0" />
    <connection from="386578487#0" fromLane="0" to="1174429371" toLane="1" visibility="9.00"/>
    <connection from="386578487#0" fromLane="1" to="1174429371" toLane="3" visibility="9.00"/>
    <connection from="386578584" fromLane="0" to="1174429371" toLane="0" />
    <connection from="453764134#0" fromLane="1" to="859079008" toLane="2" visibility="9.00"/>
    <connection from="453764134#0" fromLane="2" to="859079008" toLane="3" visibility="9.00"/>
    <connection from="479198382" fromLane="1" to="35044072" toLane="2" visibility="9.00"/>
    <connection from="608418574#1" fromLane="1" to="741767467#0" toLane="1" />
    <connection from="608418574#1" fromLane="2" to="741767467#0" toLane="2" />
    <connection from="741767467#0" fromLane="1" to="608418577" toLane="1" />
    <connection from="741767467#0" fromLane="2" to="608418577" toLane="2" />
    <connection from="859079006" fromLane="1" to="386578486" toLane="0" />
    <connection from="859079006" fromLane="1" to="386578584" toLane="0" />
    <connection from="859079008" fromLane="2" to="446557315#0" toLane="1" />
    <connection from="859079008" fromLane="2" to="859079007" toLane="0" />
    <connection from="98835813#0" fromLane="0" to="859079006" toLane="1" visibility="9.00"/>
    <connection from="98835813#0" fromLane="0" to="859079006" toLane="2" visibility="9.00"/>
    <!-- Changed Elements -->
    <connection from="-1011328569" fromLane="0" to="1011321778" toLane="0" visibility="9.00"/>
    <connection from="-1172489852" fromLane="0" to="1007088655" toLane="0" visibility="9.00"/>
    <connection from="-1172489852" fromLane="1" to="1007088655" toLane="1" visibility="9.00"/>
    <connection from="-12543986#2" fromLane="0" to="859507144#0" toLane="0" visibility="9.00"/>
    <connection from="-12543986#2" fromLane="1" to="859507144#0" toLane="1" visibility="9.00"/>
    <connection from="-134086242#1" fromLane="0" to="134085457#0" toLane="0" visibility="9.00"/>
    <connection from="-134086248" fromLane="0" to="134085455#0" toLane="0" visibility="9.00"/>
    <connection from="-161124065#1" fromLane="0" to="161124119#5" toLane="0" visibility="9.00"/>
    <connection from="-161124241#0" fromLane="0" to="161124118#2" toLane="0" visibility="9.00"/>
    <connection from="-228569587" fromLane="0" to="-1174461333" toLane="0" pass="1"/>
    <connection from="-35474708" fromLane="0" to="1120859255" toLane="0" visibility="9.00"/>
    <connection from="-36355828#0" fromLane="0" to="35139979#3" toLane="0" visibility="9.00"/>
    <connection from="-36355828#0" fromLane="0" to="35139979#3" toLane="1" visibility="9.00"/>
    <connection from="-36357161" fromLane="0" to="35139979#1" toLane="0" visibility="9.00"/>
    <connection from="-741767470#2" fromLane="0" to="30912892#0" toLane="0" pass="1"/>
    <connection from="1006945691#0" fromLane="0" to="12303132" toLane="0" visibility="9.00"/>
    <connection from="1016982177#0" fromLane="0" to="859079014" toLane="0" visibility="9.00"/>
    <connection from="1016982177#0" fromLane="1" to="859079014" toLane="1" visibility="9.00"/>
    <connection from="1018551337" fromLane="0" to="1018551329" toLane="0" visibility="9.00"/>
    <connection from="1018551337" fromLane="1" to="1018551329" toLane="1" visibility="9.00"/>
    <connection from="1018551339" fromLane="0" to="134085457#0" toLane="0" visibility="9.00"/>
    <connection from="1018551341" fromLane="0" to="1018551340" toLane="0" visibility="9.00"/>
    <connection from="1153365926#0" fromLane="0" to="1174333912" toLane="0" visibility="9.00"/>
    <connection from="1153365926#0" fromLane="1" to="1174333912" toLane="1" visibility="9.00"/>
    <connection from="1153365926#0" fromLane="1" to="1174333912" toLane="2" visibility="9.00"/>
    <connection from="1158755530#2" fromLane="0" to="1007112727#1" toLane="0" visibility="9.00"/>
    <connection from="1167578685" fromLane="0" to="13797903#0" toLane="0" pass="1"/>
    <connection from="1167578685" fromLane="1" to="13798688" toLane="0" pass="1"/>
    <connection from="1172465491" fromLane="0" to="1011321780" toLane="0" visibility="9.00"/>
    <connection from="1172465491" fromLane="1" to="1011321780" toLane="1" visibility="9.00"/>
    <connection from="1173394059#0" fromLane="0" to="1016567880" toLane="0" visibility="9.00"/>
    <connection from="1173394059#0" fromLane="1" to="1016567880" toLane="1" visibility="9.00"/>
    <connection from="1174050137#0" fromLane="0" to="14333276#0" toLane="0" uncontrolled="1"/>
    <connection from="1174667485" fromLane="0" to="207890057" toLane="0" visibility="9.00"/>
    <connection from="1174689818#0" fromLane="0" to="1018375461" toLane="0" visibility="9.00"/>
    <connection from="1174689818#0" fromLane="1" to="1018375461" toLane="1" visibility="9.00"/>
    <connection from="1174689818#0" fromLane="2" to="1018375461" toLane="2" visibility="9.00"/>
    <connection from="12296600#0" fromLane="0" to="12296600#3" toLane="0" visibility="9.00"/>
    <connection from="12296600#0" fromLane="1" to="12296600#3" toLane="1" visibility="9.00"/>
    <connection from="12302683" fromLane="0" to="434896887#0" toLane="0" visibility="9.00"/>
    <connection from="12302683" fromLane="1" to="434896887#0" toLane="1" visibility="9.00"/>
    <connection from="12543115#5" fromLane="0" to="1082399102" toLane="0" visibility="9.00"/>
    <connection from="12543115#5" fromLane="1" to="1082399102" toLane="1" visibility="9.00"/>
    <connection from="13704034" fromLane="0" to="1016567882" toLane="0" visibility="9.00"/>
    <connection from="13704034" fromLane="1" to="1016567882" toLane="1" visibility="9.00"/>
    <connection from="13713844#1" fromLane="0" to="40893744#0" toLane="0" visibility="9.00"/>
    <connection from="13713923#0" fromLane="0" to="13713923#1" toLane="0" visibility="9.00"/>
    <connection from="13715172#0" fromLane="0" to="189908446" toLane="0" visibility="9.00"/>
    <connection from="13716160" fromLane="0" to="1165311277#0" toLane="0" visibility="9.00"/>
    <connection from="13716160" fromLane="1" to="1165311277#0" toLane="1" visibility="9.00"/>
    <connection from="13797865#1" fromLane="1" to="13798803" toLane="0" visibility="9.00"/>
    <connection from="13797951" fromLane="0" to="13798768" toLane="0" visibility="9.00"/>
    <connection from="13797951" fromLane="1" to="13798768" toLane="1" visibility="9.00"/>
    <connection from="141435246#0" fromLane="0" to="141435246#1" toLane="0" visibility="9.00"/>
    <connection from="153804027" fromLane="0" to="13703488" toLane="0" visibility="9.00"/>
    <connection from="158910654#1" fromLane="0" to="151784037#2" toLane="0" visibility="9.00"/>
    <connection from="158910654#1" fromLane="0" to="151784037#2" toLane="1" visibility="9.00"/>
    <connection from="158910663#0" fromLane="0" to="151784037#0" toLane="0" visibility="9.00"/>
    <connection from="161124000#0" fromLane="0" to="161124119#0" toLane="0" visibility="9.00"/>
    <connection from="161124000#0" fromLane="1" to="161124119#0" toLane="1" visibility="9.00"/>
    <connection from="161124006#0" fromLane="0" to="161124118#3" toLane="0" visibility="9.00"/>
    <connection from="161124006#0" fromLane="1" to="161124118#3" toLane="1" visibility="9.00"/>
    <connection from="161124151" fromLane="0" to="1028346889" toLane="0" visibility="9.00"/>
    <connection from="161124151" fromLane="1" to="1028346889" toLane="1" visibility="9.00"/>
    <connection from="161124168#1" fromLane="0" to="161124118#0" toLane="0" visibility="9.00"/>
    <connection from="161124175#1" fromLane="0" to="161124118#5" toLane="0" visibility="9.00"/>
    <connection from="161124208#3" fromLane="0" to="161124119#2" toLane="0" visibility="9.00"/>
    <connection from="167487423" fromLane="0" to="14333276#0" toLane="0" uncontrolled="1"/>
    <connection from="224649287#30" fromLane="0" to="1010329173" toLane="0" visibility="9.00"/>
    <connection from="224649287#30" fromLane="1" to="1010329173" toLane="1" visibility="9.00"/>
    <connection from="232574615" fromLane="0" to="1125588717#0" toLane="0" visibility="9.00"/>
    <connection from="232574615" fromLane="1" to="1125588717#0" toLane="1" visibility="9.00"/>
    <connection from="232574620#1" fromLane="0" to="1125637640" toLane="0" visibility="9.00"/>
    <connection from="232674530#0" fromLane="0" to="258888773" toLane="0" visibility="9.00"/>
    <connection from="232674530#0" fromLane="1" to="258888773" toLane="1" visibility="9.00"/>
    <connection from="233688640" fromLane="0" to="1125588717#2" toLane="0" visibility="9.00"/>
    <connection from="25410272#0" fromLane="0" to="1082399101" toLane="0" visibility="9.00"/>
    <connection from="25410272#0" fromLane="1" to="1082399101" toLane="1" visibility="9.00"/>
    <connection from="25410493" fromLane="0" to="1125588720" toLane="0" visibility="9.00"/>
    <connection from="25410493" fromLane="1" to="1125588720" toLane="1" visibility="9.00"/>
    <connection from="256249048#0" fromLane="0" to="256165014" toLane="0" visibility="9.00"/>
    <connection from="28394176#7" fromLane="0" to="207634526" toLane="0" visibility="9.00"/>
    <connection from="28394176#7" fromLane="1" to="207634526" toLane="1" visibility="9.00"/>
    <connection from="306059692" fromLane="0" to="306059688#0" toLane="0" visibility="9.00"/>
    <connection from="332348133#1" fromLane="0" to="1028336215" toLane="0" visibility="9.00"/>
    <connection from="332348133#1" fromLane="1" to="1028336215" toLane="1" visibility="9.00"/>
    <connection from="332348179" fromLane="0" to="1016537012" toLane="0" visibility="9.00"/>
    <connection from="332348180" fromLane="0" to="1016537010" toLane="0" visibility="9.00"/>
    <connection from="332348180" fromLane="1" to="1016537010" toLane="1" visibility="9.00"/>
    <connection from="348446383" fromLane="0" to="1016567883#1" toLane="0" visibility="9.00"/>
    <connection from="348446383" fromLane="1" to="1016567883#1" toLane="1" visibility="9.00"/>
    <connection from="351525651#5" fromLane="0" to="741581703" toLane="0" visibility="9.00"/>
    <connection from="351525651#5" fromLane="1" to="741581703" toLane="1" visibility="9.00"/>
    <connection from="351525656" fromLane="0" to="12388490#5" toLane="0" visibility="9.00"/>
    <connection from="351525656" fromLane="1" to="12388490#5" toLane="1" visibility="9.00"/>
    <connection from="35331289" fromLane="0" to="1070241943" toLane="0" visibility="9.00"/>
    <connection from="35331289" fromLane="0" to="1070241943" toLane="1" visibility="9.00"/>
    <connection from="35331289" fromLane="0" to="1070241943" toLane="2" visibility="9.00"/>
    <connection from="35379623#0" fromLane="0" to="1070035543" toLane="0" visibility="9.00"/>
    <connection from="35382885" fromLane="0" to="1070035544" toLane="0" visibility="9.00"/>
    <connection from="35382885" fromLane="1" to="1070035544" toLane="1" visibility="9.00"/>
    <connection from="35382988#1" fromLane="0" to="35331290#0" toLane="0" visibility="9.00"/>
    <connection from="35413718#0" fromLane="0" to="1018551328" toLane="0" visibility="9.00"/>
    <connection from="35413719" fromLane="0" to="1174471774" toLane="0" visibility="9.00"/>
    <connection from="35731561#1" fromLane="0" to="603025759" toLane="0" visibility="9.00"/>
    <connection from="35731561#1" fromLane="1" to="603025759" toLane="1" visibility="9.00"/>
    <connection from="35731561#1" fromLane="2" to="603025759" toLane="2" visibility="9.00"/>
    <connection from="36268629#0" fromLane="0" to="549253233#0" toLane="0" visibility="9.00"/>
    <connection from="36268629#0" fromLane="1" to="549253233#0" toLane="1" visibility="9.00"/>
    <connection from="381421886" fromLane="0" to="859507152" toLane="0" visibility="9.00"/>
    <connection from="381421886" fromLane="1" to="859507152" toLane="1" visibility="9.00"/>
    <connection from="381421886" fromLane="2" to="859507152" toLane="2" visibility="9.00"/>
    <connection from="381421894#0" fromLane="0" to="94482360" toLane="0" visibility="9.00"/>
    <connection from="381421894#0" fromLane="1" to="94482360" toLane="1" visibility="9.00"/>
    <connection from="381423765" fromLane="0" to="1018551332" toLane="0" visibility="9.00"/>
    <connection from="386578487#0" fromLane="0" to="1174429371" toLane="0" visibility="9.00"/>
    <connection from="386578487#0" fromLane="1" to="1174429371" toLane="2" visibility="9.00"/>
    <connection from="39862511" fromLane="0" to="256277806#0" toLane="0" visibility="9.00"/>
    <connection from="405971248#2" fromLane="0" to="151784037#6" toLane="0" visibility="9.00"/>
    <connection from="40893760#0" fromLane="0" to="40893744#0" toLane="0" visibility="9.00"/>
    <connection from="41018353#0" fromLane="0" to="41018361#9" toLane="0" visibility="9.00"/>
    <connection from="41018358#0" fromLane="0" to="41018361#17" toLane="0" visibility="9.00"/>
    <connection from="41092974#0" fromLane="0" to="41018361#15" toLane="0" visibility="9.00"/>
    <connection from="41182334" fromLane="0" to="975262699#0" toLane="0" visibility="9.00"/>
    <connection from="414268432#1" fromLane="0" to="414268432#2" toLane="0" visibility="9.00"/>
    <connection from="441811790" fromLane="0" to="134085455#1" toLane="0" visibility="9.00"/>
    <connection from="453761213" fromLane="0" to="1014684311" toLane="0" visibility="9.00"/>
    <connection from="453761213" fromLane="1" to="1014684311" toLane="1" visibility="9.00"/>
    <connection from="453761213" fromLane="2" to="1014684311" toLane="2" visibility="9.00"/>
    <connection from="453764134#0" fromLane="0" to="859079008" toLane="0" visibility="9.00"/>
    <connection from="453764134#0" fromLane="1" to="859079008" toLane="1" visibility="9.00"/>
    <connection from="461925695#2" fromLane="0" to="1018551340" toLane="0" visibility="9.00"/>
    <connection from="479198382" fromLane="0" to="35044072" toLane="0" visibility="9.00"/>
    <connection from="479198382" fromLane="1" to="35044072" toLane="1" visibility="9.00"/>
    <connection from="484596306#7" fromLane="0" to="1011321782" toLane="0" visibility="9.00"/>
    <connection from="503935447#0" fromLane="0" to="1007088659" toLane="0" visibility="9.00"/>
    <connection from="503935447#0" fromLane="1" to="1007088659" toLane="1" visibility="9.00"/>
    <connection from="507100658" fromLane="0" to="35331290#2" toLane="0" visibility="9.00"/>
    <connection from="52070499#1" fromLane="0" to="94482354#1" toLane="0" visibility="9.00"/>
    <connection from="52070499#1" fromLane="1" to="94482354#1" toLane="1" visibility="9.00"/>
    <connection from="52070501#2" fromLane="0" to="12388490#3" toLane="0" visibility="9.00"/>
    <connection from="52070501#2" fromLane="1" to="12388490#3" toLane="1" visibility="9.00"/>
    <connection from="52070501#2" fromLane="1" to="12388490#3" toLane="2" visibility="9.00"/>
    <connection from="547105686#2" fromLane="0" to="151784037#4" toLane="0" visibility="9.00"/>
    <connection from="584422299" fromLane="0" to="1010236993" toLane="0" visibility="9.00"/>
    <connection from="584422299" fromLane="1" to="1010236993" toLane="1" visibility="9.00"/>
    <connection from="584422299" fromLane="1" to="1010236993" toLane="2" visibility="9.00"/>
    <connection from="63634696" fromLane="0" to="1070035546" toLane="0" visibility="9.00"/>
    <connection from="649376293#22" fromLane="0" to="1106585343" toLane="0" visibility="9.00"/>
    <connection from="649376293#22" fromLane="1" to="1106585343" toLane="1" visibility="9.00"/>
    <connection from="706644343#1" fromLane="0" to="724454816" toLane="0" visibility="9.00"/>
    <connection from="706644344" fromLane="0" to="724454821" toLane="0" visibility="9.00"/>
    <connection from="71292760" fromLane="0" to="1011321777#0" toLane="0" visibility="9.00"/>
    <connection from="730848987#0" fromLane="0" to="859079013" toLane="0" visibility="9.00"/>
    <connection from="730848987#0" fromLane="1" to="859079013" toLane="1" visibility="9.00"/>
    <connection from="743461567" fromLane="0" to="13797988#0" toLane="0" pass="1"/>
    <connection from="743461567" fromLane="1" to="13798716" toLane="0" pass="1"/>
    <connection from="761561720#0" fromLane="0" to="761561721" toLane="0" visibility="9.00"/>
    <connection from="761561720#0" fromLane="1" to="761561721" toLane="1" visibility="9.00"/>
    <connection from="761561720#0" fromLane="2" to="761561721" toLane="2" visibility="9.00"/>
    <connection from="835497258" fromLane="0" to="207634511#0" toLane="0" visibility="9.00"/>
    <connection from="835497258" fromLane="1" to="207634511#0" toLane="1" visibility="9.00"/>
    <connection from="836094044" fromLane="0" to="1134132876" toLane="0" visibility="9.00"/>
    <connection from="836094044" fromLane="1" to="1134132876" toLane="1" visibility="9.00"/>
    <connection from="94481891#1" fromLane="0" to="1018551331" toLane="0" visibility="9.00"/>
    <connection from="94481891#1" fromLane="1" to="1018551331" toLane="1" visibility="9.00"/>
    <connection from="94482358#3" fromLane="0" to="94482354#3" toLane="0" visibility="9.00"/>
    <connection from="94482358#3" fromLane="1" to="94482354#3" toLane="1" visibility="9.00"/>
    <connection from="95163009" fromLane="0" to="12388490#1" toLane="0" visibility="9.00"/>
    <connection from="95163014" fromLane="0" to="12388490#4" toLane="0" visibility="9.00"/>
    <connection from="95163014" fromLane="0" to="12388490#4" toLane="1" visibility="9.00"/>
    <connection from="95163014" fromLane="0" to="12388490#4" toLane="2" visibility="9.00"/>
    <connection from="975262700" fromLane="0" to="41182340#0" toLane="0" visibility="9.00"/>
    <connection from="98835970" fromLane="0" to="1018551326" toLane="0" visibility="9.00"/>
</connections>
