<?xml version="1.0" encoding="UTF-8"?>

<!-- generated on 2023-05-25 20:59:10.741974 by netdiff.py UNKNOWN
<configuration>
    <source value="porto-osm-geo.net.xml"/>
    <dest value="porto-fixed.net.xml"/>
    <outprefix value="diff"/>
</configuration>
-->

<tlLogics version="1.16" xmlns:xsi="http://www.w3.org/2001/XMLSchema-instance" xsi:noNamespaceSchemaLocation="http://sumo.dlr.de/xsd/tllogic_file.xsd">
    <!-- Deleted Elements -->
    <!-- implicit via changed node type: <delete id="GS_1110673414" programID="0"/> -->
    <!-- implicit via changed node type: <delete id="GS_126617430" programID="0"/> -->
    <!-- implicit via changed node type: <delete id="GS_3446699975" programID="0"/> -->
    <!-- implicit via changed node type: <delete id="GS_3446699979" programID="0"/> -->
    <!-- implicit via changed node type: <delete id="GS_3446699996" programID="0"/> -->
    <!-- implicit via changed node type: <delete id="GS_420807840" programID="0"/> -->
    <!-- implicit via changed node type: <delete id="GS_90378713" programID="0"/> -->
    <!-- implicit via changed node type: <delete id="GS_90378716" programID="0"/> -->
    <!-- implicit via changed node type: <delete id="cluster_126604789_428217475_475360026" programID="0"/> -->
    <!-- implicit via changed node type: <delete id="joinedS_10838683814_1788786447_335560491" programID="0"/> -->
    <!-- implicit via changed node type: <delete id="joinedS_1225943158_126592365" programID="0"/> -->
    <!-- implicit via changed node type: <delete id="joinedS_1418798464_1418798469_1418798472_3391599154" programID="0"/> -->
    <delete from="-434882592#1" fromLane="0" to="741767467#0" toLane="0" linkIndex="0" tl="GS_90378713"/>
    <delete from="1165291405#0" fromLane="0" to="1165291406#1" toLane="0" linkIndex="0" tl="joinedS_10838683814_1788786447_335560491"/>
    <delete from="1165294591" fromLane="0" to="1165291406#1" toLane="0" linkIndex="1" tl="joinedS_10838683814_1788786447_335560491"/>
    <delete from="128363655#2" fromLane="0" to="292119381" toLane="0" linkIndex="2" tl="joinedS_1418798464_1418798469_1418798472_3391599154"/>
    <delete from="13715172#0" fromLane="0" to="189908446" toLane="0" linkIndex="0" tl="GS_3446699996"/>
    <delete from="13799864#0" fromLane="1" to="13800268#0" toLane="0" linkIndex="6" tl="cluster_128668277_128669177_428215421"/>
    <delete from="13800268#0" fromLane="0" to="47938035#0" toLane="0" linkIndex="11" tl="joinedS_1840161086_cluster_1840161082_2178845900_2178845902"/>
    <delete from="13800268#0" fromLane="1" to="167487378#0" toLane="0" linkIndex="12" tl="joinedS_1840161086_cluster_1840161082_2178845900_2178845902"/>
    <delete from="13800268#0" fromLane="2" to="167487378#0" toLane="1" linkIndex="13" tl="joinedS_1840161086_cluster_1840161082_2178845900_2178845902"/>
    <delete from="13800268#0" fromLane="2" to="47938035#0" toLane="1" linkIndex="14" tl="joinedS_1840161086_cluster_1840161082_2178845900_2178845902"/>
    <delete from="13800268#0" fromLane="2" to="1167615227" toLane="0" linkIndex="15" tl="joinedS_1840161086_cluster_1840161082_2178845900_2178845902"/>
    <delete from="160503755" fromLane="0" to="110801277#0" toLane="1" linkIndex="7" tl="GS_cluster_1264279325_9376306390_9376306392"/>
    <delete from="167057944#0" fromLane="0" to="304680072" toLane="0" linkIndex="4" tl="joinedS_1418798464_1418798469_1418798472_3391599154"/>
    <delete from="167487372#0" fromLane="0" to="167487372#2" toLane="0" linkIndex="3" tl="joinedS_10838683814_1788786447_335560491"/>
    <delete from="167487372#0" fromLane="1" to="167487372#2" toLane="1" linkIndex="4" tl="joinedS_10838683814_1788786447_335560491"/>
    <delete from="252519112#2" fromLane="0" to="167487372#2" toLane="0" linkIndex="2" tl="joinedS_10838683814_1788786447_335560491"/>
    <delete from="453493822#7" fromLane="0" to="-1174193045#1" toLane="0" linkIndex="15" tl="cluster_126604789_428217475_475360026"/>
    <delete from="482240913#0" fromLane="0" to="292119381" toLane="1" linkIndex="3" tl="joinedS_1418798464_1418798469_1418798472_3391599154"/>
    <delete from="482240915#0" fromLane="0" to="128363661" toLane="0" linkIndex="1" tl="joinedS_1418798464_1418798469_1418798472_3391599154"/>
    <delete from="482264025#0" fromLane="0" to="128363661" toLane="0" linkIndex="0" tl="joinedS_1418798464_1418798469_1418798472_3391599154"/>
    <delete from="482276565#0" fromLane="0" to="304680072" toLane="0" linkIndex="5" tl="joinedS_1418798464_1418798469_1418798472_3391599154"/>
    <delete from="608418574#1" fromLane="0" to="434882592#0" toLane="0" linkIndex="1" tl="GS_90378713"/>
    <delete from="608418574#1" fromLane="1" to="741767467#0" toLane="0" linkIndex="2" tl="GS_90378713"/>
    <delete from="608418574#1" fromLane="2" to="741767467#0" toLane="1" linkIndex="3" tl="GS_90378713"/>
    <delete from="608418576#0" fromLane="0" to="-13715172#2" toLane="0" linkIndex="1" tl="GS_3446699996"/>
    <delete from="608418576#0" fromLane="1" to="189908446" toLane="0" linkIndex="2" tl="GS_3446699996"/>
    <delete from="608418576#0" fromLane="2" to="189908446" toLane="1" linkIndex="3" tl="GS_3446699996"/>
    <delete from="741767467#0" fromLane="1" to="608418577" toLane="0" linkIndex="4" tl="GS_3446699979"/>
    <delete from="741767467#0" fromLane="2" to="608418577" toLane="1" linkIndex="5" tl="GS_3446699979"/>
    <!-- Created Elements -->
    <tlLogic id="138214591" programID="0" offset="0" type="static">
        <phase duration="42" state="GrrGGGrr"/>
        <phase duration="3" state="yrryyyrr"/>
        <phase duration="42" state="rGGrrrGG"/>
        <phase duration="3" state="ryyrrryy"/>
    </tlLogic>
    <tlLogic id="TLS_Campo_Alegre" programID="0" offset="0" type="static">
        <phase duration="39" state="rGGr"/>
        <phase duration="6" state="ryyr"/>
        <phase duration="39" state="GrrG"/>
        <phase duration="6" state="yrry"/>
    </tlLogic>
    <tlLogic id="TLS_Fatima" programID="0" offset="0" type="actuated">
        <phase duration="30" state="GGGrrrrrGGrrGrrr"/>
        <phase duration="3" state="yyyrrrrryyrrGrrr"/>
        <phase duration="15" state="rrrGrrrrrrGGGrrr"/>
        <phase duration="3" state="rrryrrrrrryyGrrr"/>
        <phase duration="15" state="rrrrGGGGrrrrrrrr"/>
        <phase duration="3" state="rrrryyyyrrrrrrrr"/>
        <phase duration="15" state="rrrrrrrrrrrrGGGG"/>
        <phase duration="3" state="rrrrrrrrrrrryyyy"/>
    </tlLogic>
    <tlLogic id="TLS_Prelada" programID="0" offset="0" type="actuated">
        <phase duration="38" maxDur="50" minDur="5" state="rGgGGGr"/>
        <phase duration="3" state="rGgyGyr"/>
        <phase duration="3" state="ryyrGrr"/>
        <phase duration="37" state="GrrrGrr"/>
        <phase duration="3" state="yrrrGrr"/>
        <phase duration="15" state="rrrrGrG"/>
        <phase duration="3" state="rrrrGry"/>
    </tlLogic>
    <tlLogic id="TLS_Rotunda_Boavista" programID="0" offset="0" type="static">
        <phase duration="60" state="GrGrrGGrG"/>
        <phase duration="5" state="yryrrGyry"/>
        <phase duration="30" state="rGrGGGrGr"/>
        <phase duration="5" state="ryryyGryr"/>
    </tlLogic>
    <tlLogic id="TL_HSJ_FEUP" programID="0" offset="0" type="static">
        <phase duration="30" state="GrrGrr"/>
        <phase duration="3" state="yrryrr"/>
        <phase duration="30" state="rGGrGr"/>
        <phase duration="3" state="ryyryr"/>
        <phase duration="15" state="rGGrrG"/>
        <phase duration="3" state="ryyrry"/>
    </tlLogic>
    <tlLogic id="TL_JulioDinis" programID="0" offset="0" type="static">
        <phase duration="42" state="GgrG"/>
        <phase duration="3" state="ygry"/>
        <phase duration="42" state="rGGr"/>
        <phase duration="3" state="rgyr"/>
    </tlLogic>
    <tlLogic id="TL_SBras_JoaoPedroBrito" programID="0" offset="0" type="actuated">
        <phase duration="42" state="GGrr"/>
        <phase duration="3" state="yyrr"/>
        <phase duration="15" state="rrGr"/>
        <phase duration="3" state="rryr"/>
        <phase duration="42" maxDur="50" minDur="5" state="GrrG"/>
        <phase duration="3" state="yrry"/>
    </tlLogic>
    <!-- Changed Elements -->
    <tlLogic id="GS_cluster_1264279325_9376306390_9376306392" programID="0" >
        <phase duration="27" maxDur="50" minDur="5" state="rrGGGGGrrr"/>
        <phase duration="3" state="rryyyyyrrr"/>
        <phase duration="27" state="GGrrrrrrrr"/>
        <phase duration="3" state="yyrrrrrrrr"/>
        <phase duration="12" state="rrrrrGGGGG"/>
        <phase duration="3" state="rrrrrGGyyy"/>
    </tlLogic>
    <tlLogic id="GS_cluster_1264279406_1264279436_1264279449_1725588115_#1more" programID="0" >
        <phase duration="20" state="GGGGGrrrr"/>
        <phase duration="3" state="yyyGGrrrr"/>
        <phase duration="15" state="rrrGGGrrr"/>
        <phase duration="3" state="rrryyyrrr"/>
        <phase duration="30" state="GGgrrrGGG"/>
        <phase duration="3" state="GGgrrryyy"/>
    </tlLogic>
    <tlLogic id="cluster_128668277_128669177_428215421" programID="0" >
        <phase duration="38" maxDur="50" minDur="5" state="GGggGGGrrr"/>
        <phase duration="3" state="yyggyyyrrr"/>
        <phase duration="6" maxDur="50" minDur="5" state="GGGGrrrrrr"/>
        <phase duration="3" state="yyyyrrrrrr"/>
        <phase duration="37" maxDur="50" minDur="5" state="GrrrrrrGGG"/>
        <phase duration="3" state="yrrrrrryyy"/>
    </tlLogic>
    <tlLogic id="joinedS_1840161086_cluster_1840161082_2178845900_2178845902" programID="0" >
        <phase duration="27" maxDur="50" minDur="13" state="rGGGGGrrrrrrGGr"/>
        <phase duration="6" state="ryyyyyrrrrrryyr"/>
        <phase duration="6" maxDur="50" minDur="13" state="rGGrrrrrrrrrGGG"/>
        <phase duration="6" state="ryyrrrrrrrrryyy"/>
        <phase duration="27" maxDur="50" minDur="10" state="rGGrrrGGGGGGrrr"/>
        <phase duration="6" state="ryyrrryyyyyyrrr"/>
        <phase duration="6" maxDur="50" minDur="10" state="Grrrrrrrrrrrrrr"/>
        <phase duration="6" state="yrrrrrrrrrrrrrr"/>
    </tlLogic>
    <!-- Created Elements -->
    <connection from="1167613419#0" fromLane="0" to="1167615227" toLane="0" linkIndex="3" tl="joinedS_1840161086_cluster_1840161082_2178845900_2178845902"/>
    <connection from="1174050137#0" fromLane="0" to="13854847#0" toLane="0" linkIndex="4" tl="138214591"/>
    <connection from="1174050137#0" fromLane="1" to="13854847#0" toLane="1" linkIndex="5" tl="138214591"/>
    <connection from="13799864#0" fromLane="1" to="13800268#0" toLane="2" linkIndex="6" tl="cluster_128668277_128669177_428215421"/>
    <connection from="13800268#0" fromLane="0" to="167487378#0" toLane="0" linkIndex="12" tl="joinedS_1840161086_cluster_1840161082_2178845900_2178845902"/>
    <connection from="13800268#0" fromLane="1" to="167487378#0" toLane="1" linkIndex="13" tl="joinedS_1840161086_cluster_1840161082_2178845900_2178845902"/>
    <connection from="13800268#0" fromLane="2" to="47938035#0" toLane="0" linkIndex="14" tl="joinedS_1840161086_cluster_1840161082_2178845900_2178845902"/>
    <connection from="167487372#2" fromLane="0" to="1165291408#0" toLane="0" linkIndex="0" tl="TL_JulioDinis"/>
    <connection from="167487372#2" fromLane="1" to="1165291408#0" toLane="1" linkIndex="0" tl="TL_JulioDinis"/>
    <connection from="167487423" fromLane="0" to="13854847#0" toLane="1" linkIndex="7" tl="138214591"/>
    <connection from="167487441" fromLane="0" to="1165291408#0" toLane="1" linkIndex="1" tl="TL_JulioDinis"/>
    <connection from="209633323" fromLane="0" to="1049614068#0" toLane="0" linkIndex="3" tl="TL_HSJ_FEUP"/>
    <connection from="209633323" fromLane="1" to="1049614068#0" toLane="1" linkIndex="3" tl="TL_HSJ_FEUP"/>
    <connection from="286085489" fromLane="0" to="1049614068#0" toLane="0" linkIndex="2" tl="TL_HSJ_FEUP"/>
    <connection from="286085489" fromLane="1" to="1049614068#0" toLane="1" linkIndex="2" tl="TL_HSJ_FEUP"/>
    <connection from="286085489" fromLane="2" to="35997762" toLane="0" linkIndex="2" tl="TL_HSJ_FEUP"/>
    <connection from="286085489" fromLane="2" to="35997762" toLane="1" linkIndex="2" tl="TL_HSJ_FEUP"/>
    <connection from="35997762" fromLane="0" to="36905352#0" toLane="0" linkIndex="1" tl="TL_HSJ_FEUP"/>
    <connection from="35997762" fromLane="0" to="1016953421#0" toLane="0" linkIndex="1" tl="TL_HSJ_FEUP"/>
    <connection from="35997762" fromLane="1" to="1016953421#0" toLane="1" linkIndex="1" tl="TL_HSJ_FEUP"/>
    <connection from="482240916" fromLane="0" to="482276565#0" toLane="0" linkIndex="3" tl="TLS_Campo_Alegre"/>
    <connection from="482264026#0" fromLane="0" to="482240913#0" toLane="0" linkIndex="2" tl="TLS_Campo_Alegre"/>
    <connection from="608418575#0" fromLane="0" to="608418574#0" toLane="1" linkIndex="0" tl="TLS_Rotunda_Boavista"/>
    <connection from="608418575#0" fromLane="1" to="608418574#0" toLane="2" linkIndex="0" tl="TLS_Rotunda_Boavista"/>
    <connection from="643196111#0" fromLane="0" to="36905352#0" toLane="0" linkIndex="0" tl="TL_HSJ_FEUP"/>
    <connection from="643196111#0" fromLane="0" to="1016953421#0" toLane="0" linkIndex="0" tl="TL_HSJ_FEUP"/>
    <connection from="643196111#0" fromLane="1" to="1016953421#0" toLane="1" linkIndex="0" tl="TL_HSJ_FEUP"/>
    <connection from="705491646#0" fromLane="0" to="608418574#0" toLane="0" linkIndex="1" tl="TLS_Rotunda_Boavista"/>
    <connection from="705491646#0" fromLane="1" to="608418574#0" toLane="1" linkIndex="1" tl="TLS_Rotunda_Boavista"/>
    <connection from="741767467#0" fromLane="1" to="608418577" toLane="1" linkIndex="6" tl="TLS_Rotunda_Boavista"/>
    <connection from="741767467#0" fromLane="2" to="608418577" toLane="2" linkIndex="6" tl="TLS_Rotunda_Boavista"/>
    <!-- Changed Elements -->
    <connection from="-104179543#1" fromLane="0" to="157295454#0" toLane="0" linkIndex="1" tl="TLS_Prelada"/>
    <connection from="-104179543#1" fromLane="1" to="106572529#0" toLane="0" linkIndex="2" tl="TLS_Prelada"/>
    <connection from="-1174193044#1" fromLane="0" to="434882601#0" toLane="0" tl="TLS_Fatima"/>
    <connection from="-1174193044#1" fromLane="0" to="-1174193045#1" toLane="0" tl="TLS_Fatima"/>
    <connection from="-1174193044#1" fromLane="1" to="-453493822#7" toLane="0" tl="TLS_Fatima"/>
    <connection from="-1174193044#1" fromLane="1" to="36836250" toLane="0" tl="TLS_Fatima"/>
    <connection from="-434882601#1" fromLane="0" to="-1174193045#1" toLane="0" tl="TLS_Fatima"/>
    <connection from="-434882601#1" fromLane="0" to="-453493822#7" toLane="0" tl="TLS_Fatima"/>
    <connection from="-434882601#1" fromLane="0" to="36836250" toLane="0" tl="TLS_Fatima"/>
    <connection from="-434882601#1" fromLane="0" to="1174193044#0" toLane="0" tl="TLS_Fatima"/>
    <connection from="-453761207#2" fromLane="0" to="453761208" toLane="0" linkIndex="2" tl="TL_SBras_JoaoPedroBrito"/>
    <connection from="-453761207#2" fromLane="0" to="453761208" toLane="1" linkIndex="2" tl="TL_SBras_JoaoPedroBrito"/>
    <connection from="-453761207#2" fromLane="0" to="-13715562#1" toLane="0" linkIndex="2" tl="TL_SBras_JoaoPedroBrito"/>
    <connection from="1010030157" fromLane="0" to="286085489" toLane="1" linkIndex="5" tl="TL_HSJ_FEUP"/>
    <connection from="1010030157" fromLane="1" to="286085489" toLane="2" linkIndex="5" tl="TL_HSJ_FEUP"/>
    <connection from="104179543#0" fromLane="0" to="212710686" toLane="0" linkIndex="4" tl="TLS_Prelada"/>
    <connection from="106572534#0" fromLane="0" to="157295454#0" toLane="0" tl="TLS_Prelada"/>
    <connection from="106572534#0" fromLane="0" to="106572529#0" toLane="0" linkIndex="0" tl="TLS_Prelada"/>
    <connection from="106572534#0" fromLane="1" to="104179543#0" toLane="0" linkIndex="0" tl="TLS_Prelada"/>
    <connection from="1167613419#0" fromLane="0" to="28618312" toLane="0" linkIndex="4"/>
    <connection from="1167613419#0" fromLane="1" to="28618312" toLane="1" linkIndex="5"/>
    <connection from="1174193045#0" fromLane="0" to="-453493822#7" toLane="0" tl="TLS_Fatima"/>
    <connection from="1174193045#0" fromLane="0" to="36836250" toLane="0" tl="TLS_Fatima"/>
    <connection from="1174193045#0" fromLane="0" to="1174193044#0" toLane="0" tl="TLS_Fatima"/>
    <connection from="1174193045#0" fromLane="1" to="434882601#0" toLane="0" tl="TLS_Fatima"/>
    <connection from="128245297#0" fromLane="0" to="608418577" toLane="0" linkIndex="4" tl="TLS_Rotunda_Boavista"/>
    <connection from="128245297#0" fromLane="1" to="608418577" toLane="1" linkIndex="4" tl="TLS_Rotunda_Boavista"/>
    <connection from="128245297#0" fromLane="2" to="608418577" toLane="2" linkIndex="4" tl="TLS_Rotunda_Boavista"/>
    <connection from="128363659#0" fromLane="0" to="482240915#0" toLane="0" linkIndex="1" tl="TLS_Campo_Alegre"/>
    <connection from="128463452#0" fromLane="0" to="1165291407" toLane="0" linkIndex="2" tl="TL_JulioDinis"/>
    <connection from="128463452#0" fromLane="1" to="167487441" toLane="0" linkIndex="2" tl="TL_JulioDinis"/>
    <connection from="13715562#0" fromLane="0" to="453761207#0" toLane="0" linkIndex="3" tl="TL_SBras_JoaoPedroBrito"/>
    <connection from="13715562#0" fromLane="1" to="453761208" toLane="1" linkIndex="3" tl="TL_SBras_JoaoPedroBrito"/>
    <connection from="13715562#0" fromLane="2" to="453761208" toLane="2" linkIndex="3" tl="TL_SBras_JoaoPedroBrito"/>
    <connection from="13854847#0" fromLane="0" to="608418576#0" toLane="0" linkIndex="7" tl="TLS_Rotunda_Boavista"/>
    <connection from="13854847#0" fromLane="1" to="608418576#0" toLane="1" linkIndex="7" tl="TLS_Rotunda_Boavista"/>
    <connection from="13854848#0" fromLane="0" to="30405564#0" toLane="0" tl="138214591"/>
    <connection from="13854848#0" fromLane="1" to="167487423" toLane="0" tl="138214591"/>
    <connection from="167487371#0" fromLane="0" to="1165291407" toLane="0" linkIndex="3" tl="TL_JulioDinis"/>
    <connection from="167487371#0" fromLane="1" to="1165291407" toLane="1" linkIndex="3" tl="TL_JulioDinis"/>
    <connection from="207634527#0" fromLane="0" to="167487378#0" toLane="0" linkIndex="6"/>
    <connection from="207634527#0" fromLane="0" to="167487378#0" toLane="1" linkIndex="7"/>
    <connection from="207634527#0" fromLane="0" to="47938035#0" toLane="0" linkIndex="8"/>
    <connection from="207634527#0" fromLane="0" to="47938035#0" toLane="1" linkIndex="9"/>
    <connection from="207634527#0" fromLane="0" to="1167615227" toLane="0" linkIndex="10"/>
    <connection from="207634527#0" fromLane="0" to="28618312" toLane="1" linkIndex="11"/>
    <connection from="232445175#2" fromLane="0" to="734269564#0" toLane="0" tl="TLS_Rotunda_Boavista"/>
    <connection from="232445175#2" fromLane="1" to="734269564#0" toLane="1" linkIndex="3" tl="TLS_Rotunda_Boavista"/>
    <connection from="232445175#2" fromLane="2" to="734269564#0" toLane="2" linkIndex="3" tl="TLS_Rotunda_Boavista"/>
    <connection from="31396393#0" fromLane="0" to="-13715562#1" toLane="0" tl="TL_SBras_JoaoPedroBrito"/>
    <connection from="31396393#0" fromLane="0" to="453761207#0" toLane="0" tl="TL_SBras_JoaoPedroBrito"/>
    <connection from="31396393#0" fromLane="1" to="453761207#0" toLane="1" linkIndex="1" tl="TL_SBras_JoaoPedroBrito"/>
    <connection from="31396393#0" fromLane="1" to="453761208" toLane="2" linkIndex="1" tl="TL_SBras_JoaoPedroBrito"/>
    <connection from="35202691#0" fromLane="0" to="30405564#0" toLane="0" tl="138214591"/>
    <connection from="453493822#7" fromLane="0" to="36836250" toLane="0" tl="TLS_Fatima"/>
    <connection from="453493822#7" fromLane="0" to="1174193044#0" toLane="0" tl="TLS_Fatima"/>
    <connection from="453493822#7" fromLane="0" to="434882601#0" toLane="0" tl="TLS_Fatima"/>
    <connection from="453494878#0" fromLane="0" to="106572529#0" toLane="0" linkIndex="3" tl="TLS_Prelada"/>
    <connection from="453494878#0" fromLane="1" to="104179543#0" toLane="0" linkIndex="3" tl="TLS_Prelada"/>
    <connection from="453847722#1" fromLane="0" to="212710686" toLane="0" linkIndex="6" tl="TLS_Prelada"/>
    <connection from="453847722#1" fromLane="0" to="212706763#0" toLane="1" linkIndex="6" tl="TLS_Prelada"/>
    <connection from="482276569#0" fromLane="0" to="482240916" toLane="0" linkIndex="0" tl="TLS_Campo_Alegre"/>
    <connection from="608418573#0" fromLane="0" to="734269564#0" toLane="0" linkIndex="2" tl="TLS_Rotunda_Boavista"/>
    <connection from="608418573#0" fromLane="1" to="734269564#0" toLane="1" linkIndex="2" tl="TLS_Rotunda_Boavista"/>
    <connection from="608418573#0" fromLane="2" to="734269564#0" toLane="2" tl="TLS_Rotunda_Boavista"/>
    <connection from="608418580#0" fromLane="0" to="608418576#0" toLane="1" linkIndex="8" tl="TLS_Rotunda_Boavista"/>
    <connection from="608418580#0" fromLane="1" to="608418576#0" toLane="2" linkIndex="8" tl="TLS_Rotunda_Boavista"/>
    <connection from="704870102#0" fromLane="0" to="286085489" toLane="0" linkIndex="4" tl="TL_HSJ_FEUP"/>
    <connection from="704870102#0" fromLane="1" to="286085489" toLane="1" linkIndex="4" tl="TL_HSJ_FEUP"/>
    <connection from="704870102#0" fromLane="2" to="286085489" toLane="2" linkIndex="4" tl="TL_HSJ_FEUP"/>
    <connection from="741767467#0" fromLane="0" to="-128245297#1" toLane="0" linkIndex="5" tl="TLS_Rotunda_Boavista"/>
    <connection from="841248734#0" fromLane="0" to="212706763#0" toLane="0" linkIndex="5" tl="TLS_Prelada"/>
    <connection from="841248734#0" fromLane="0" to="-104179543#1" toLane="0" linkIndex="5" tl="TLS_Prelada"/>
    <connection from="841248734#0" fromLane="1" to="-104179543#1" toLane="1" linkIndex="5" tl="TLS_Prelada"/>
</tlLogics>
