<?xml version="1.0" encoding="UTF-8"?>

<!-- generated on 2023-05-29 02:27:22.060975 by netdiff.py UNKNOWN
<configuration>
    <source value="porto-osm-geo.net.xml"/>
    <dest value="porto-fixed.net.xml"/>
    <outprefix value="diff"/>
</configuration>
-->

<tlLogics version="1.16" xmlns:xsi="http://www.w3.org/2001/XMLSchema-instance" xsi:noNamespaceSchemaLocation="http://sumo.dlr.de/xsd/tllogic_file.xsd">
    <!-- Deleted Elements -->
    <!-- implicit via changed node type: <delete id="GS_1788788654" programID="0"/> -->
    <!-- implicit via changed node type: <delete id="cluster_10916547339_1352647052_1352647054_299613131_#4more" programID="0"/> -->
    <!-- implicit via changed node type: <delete id="cluster_1418798469_335691896" programID="0"/> -->
    <!-- implicit via changed node type: <delete id="joinedS_10838683814_1788786447" programID="0"/> -->
    <!-- implicit via changed node type: <delete id="joinedS_130075593_1352647004_cluster_1352647001_5307690020" programID="0"/> -->
    <!-- implicit via changed node type: <delete id="joinedS_1418798464_1418798469_1418798472_3391599154" programID="0"/> -->
    <delete from="-1030031001#6" fromLane="1" to="128363659#0" toLane="0" linkIndex="4" tl="cluster_1418798469_335691896"/>
    <delete from="1165291405#0" fromLane="0" to="1165291406#1" toLane="0" linkIndex="0" tl="joinedS_10838683814_1788786447"/>
    <delete from="1165294591" fromLane="0" to="1165291406#1" toLane="0" linkIndex="1" tl="joinedS_10838683814_1788786447"/>
    <delete from="120692682#0" fromLane="0" to="118148373#0" toLane="0" linkIndex="2" tl="joinedS_130075593_1352647004_cluster_1352647001_5307690020"/>
    <delete from="128363655#2" fromLane="0" to="1030031001#0" toLane="0" linkIndex="0" tl="cluster_1418798469_335691896"/>
    <delete from="128363655#2" fromLane="0" to="1030031001#0" toLane="1" linkIndex="1" tl="cluster_1418798469_335691896"/>
    <delete from="13860800#0" fromLane="0" to="13860802" toLane="0" linkIndex="0" tl="joinedS_130075593_1352647004_cluster_1352647001_5307690020"/>
    <delete from="167057944#0" fromLane="0" to="304680072" toLane="0" linkIndex="2" tl="joinedS_1418798464_1418798469_1418798472_3391599154"/>
    <delete from="167487372#0" fromLane="0" to="167487372#2" toLane="0" linkIndex="3" tl="joinedS_10838683814_1788786447"/>
    <delete from="167487372#0" fromLane="1" to="167487372#2" toLane="1" linkIndex="4" tl="joinedS_10838683814_1788786447"/>
    <delete from="228657550#0" fromLane="0" to="118148373#0" toLane="0" linkIndex="3" tl="joinedS_130075593_1352647004_cluster_1352647001_5307690020"/>
    <delete from="252519112#2" fromLane="0" to="167487372#2" toLane="0" linkIndex="2" tl="joinedS_10838683814_1788786447"/>
    <delete from="480146198#0" fromLane="0" to="13860802" toLane="0" linkIndex="1" tl="joinedS_130075593_1352647004_cluster_1352647001_5307690020"/>
    <delete from="482240913#0" fromLane="0" to="1030031001#0" toLane="0" linkIndex="2" tl="cluster_1418798469_335691896"/>
    <delete from="482240913#0" fromLane="0" to="1030031001#0" toLane="1" linkIndex="3" tl="cluster_1418798469_335691896"/>
    <delete from="482240915#0" fromLane="0" to="128363661" toLane="0" linkIndex="1" tl="joinedS_1418798464_1418798469_1418798472_3391599154"/>
    <delete from="482264025#0" fromLane="0" to="128363661" toLane="0" linkIndex="0" tl="joinedS_1418798464_1418798469_1418798472_3391599154"/>
    <delete from="482276565#0" fromLane="0" to="304680072" toLane="0" linkIndex="3" tl="joinedS_1418798464_1418798469_1418798472_3391599154"/>
    <delete from="741767467#0" fromLane="2" to="608418577" toLane="1" linkIndex="5" tl="GS_3446699979"/>
    <!-- Created Elements -->
    <tlLogic id="111439225" programID="0" offset="0" type="actuated">
        <phase duration="42" maxDur="50" minDur="5" state="rrGGGG"/>
        <phase duration="3" state="rryyyy"/>
        <phase duration="42" maxDur="50" minDur="5" state="GGrrrr"/>
        <phase duration="3" state="yyrrrr"/>
    </tlLogic>
    <tlLogic id="111450380" programID="0" offset="0" type="actuated">
        <phase duration="42" maxDur="50" minDur="5" state="GGGrr"/>
        <phase duration="3" state="yyyrr"/>
        <phase duration="42" maxDur="50" minDur="5" state="rrGGG"/>
        <phase duration="3" state="rryyy"/>
    </tlLogic>
    <tlLogic id="122439068" programID="0" offset="0" type="actuated">
        <phase duration="42" maxDur="50" minDur="5" state="GGGrrrr"/>
        <phase duration="3" state="yyyrrrr"/>
        <phase duration="41" maxDur="50" minDur="5" state="rrrGGGG"/>
        <phase duration="3" state="rrryyyy"/>
        <phase duration="1" state="rrrrrrr"/>
    </tlLogic>
    <tlLogic id="122452427" programID="0" offset="0" type="actuated">
        <phase duration="38" maxDur="50" minDur="5" state="GGrrrrGg"/>
        <phase duration="3" state="yyrrrryg"/>
        <phase duration="6" maxDur="50" minDur="5" state="rrrrrrGG"/>
        <phase duration="3" state="rrrrrryy"/>
        <phase duration="37" maxDur="50" minDur="5" state="rrGGGGrr"/>
        <phase duration="3" state="rryyyyrr"/>
    </tlLogic>
    <tlLogic id="126617428" programID="0" offset="0" type="actuated">
        <phase duration="26" maxDur="50" minDur="5" state="rrrrGGGG"/>
        <phase duration="3" state="rrrryyyy"/>
        <phase duration="27" maxDur="50" minDur="5" state="rrGGrrrr"/>
        <phase duration="3" state="rryyrrrr"/>
        <phase duration="1" state="rrrrrrrr"/>
        <phase duration="27" maxDur="50" minDur="5" state="GGGrrrrr"/>
        <phase duration="3" state="yyyrrrrr"/>
    </tlLogic>
    <tlLogic id="126617430" programID="0" offset="0" type="actuated">
        <phase duration="42" maxDur="50" minDur="5" state="GGGgGGgrrr"/>
        <phase duration="3" state="yyyyyyyrrr"/>
        <phase duration="42" maxDur="50" minDur="5" state="GrrrrrrGGG"/>
        <phase duration="3" state="yrrrrrryyy"/>
    </tlLogic>
    <tlLogic id="128673223" programID="0" offset="0" type="actuated">
        <phase duration="42" maxDur="50" minDur="5" state="GGgGGrrr"/>
        <phase duration="3" state="yyyyyrrr"/>
        <phase duration="42" maxDur="50" minDur="5" state="rrrrrGGG"/>
        <phase duration="3" state="rrrrryyy"/>
    </tlLogic>
    <tlLogic id="129665112" programID="0" offset="0" type="actuated">
        <phase duration="42" maxDur="50" minDur="5" state="rrGG"/>
        <phase duration="3" state="rryy"/>
        <phase duration="42" maxDur="50" minDur="5" state="GGrr"/>
        <phase duration="3" state="yyrr"/>
    </tlLogic>
    <tlLogic id="311886808" programID="0" offset="0" type="actuated">
        <phase duration="42" maxDur="50" minDur="5" state="rrGGGGGg"/>
        <phase duration="3" state="rryyyyyy"/>
        <phase duration="42" maxDur="50" minDur="5" state="GGGrrrrr"/>
        <phase duration="3" state="yyyrrrrr"/>
    </tlLogic>
    <tlLogic id="311886933" programID="0" offset="0" type="actuated">
        <phase duration="42" maxDur="50" minDur="5" state="rrGGGG"/>
        <phase duration="3" state="rryyyy"/>
        <phase duration="42" maxDur="50" minDur="5" state="GGrrrr"/>
        <phase duration="3" state="yyrrrr"/>
    </tlLogic>
    <tlLogic id="311887304" programID="0" offset="0" type="actuated">
        <phase duration="82" maxDur="50" minDur="5" state="GGGGGg"/>
        <phase duration="3" state="yyyyyy"/>
        <phase duration="5" state="rrrrrr"/>
    </tlLogic>
    <tlLogic id="311887306" programID="0" offset="0" type="actuated">
        <phase duration="82" maxDur="50" minDur="5" state="GGGGGg"/>
        <phase duration="3" state="yyyyyy"/>
        <phase duration="5" state="rrrrrr"/>
    </tlLogic>
    <tlLogic id="335560491" programID="0" offset="0" type="actuated">
        <phase duration="42" maxDur="50" minDur="5" state="GGrrrGG"/>
        <phase duration="3" state="yyrrryy"/>
        <phase duration="42" maxDur="50" minDur="5" state="rrGGGrr"/>
        <phase duration="3" state="rryyyrr"/>
    </tlLogic>
    <tlLogic id="343646810" programID="0" offset="0" type="actuated">
        <phase duration="42" maxDur="50" minDur="5" state="rrrrGgGGG"/>
        <phase duration="3" state="rrrryyyyy"/>
        <phase duration="42" maxDur="50" minDur="5" state="GGGGrrrrr"/>
        <phase duration="3" state="yyyyrrrrr"/>
    </tlLogic>
    <tlLogic id="343646851" programID="0" offset="0" type="actuated">
        <phase duration="42" maxDur="50" minDur="5" state="GGGrrrr"/>
        <phase duration="3" state="yyyrrrr"/>
        <phase duration="42" maxDur="50" minDur="5" state="rrrGGGG"/>
        <phase duration="3" state="rrryyyy"/>
    </tlLogic>
    <tlLogic id="3446699996" programID="0" offset="0" type="actuated">
        <phase duration="42" maxDur="50" minDur="5" state="GGrrr"/>
        <phase duration="3" state="yyrrr"/>
        <phase duration="42" maxDur="50" minDur="5" state="rGGGG"/>
        <phase duration="3" state="ryyyy"/>
    </tlLogic>
    <tlLogic id="479183608" programID="0" offset="0" type="actuated">
        <phase duration="42" maxDur="50" minDur="5" state="GgrrGgG"/>
        <phase duration="3" state="yyrryyy"/>
        <phase duration="42" maxDur="50" minDur="5" state="rrGGrGr"/>
        <phase duration="3" state="rryyryr"/>
    </tlLogic>
    <tlLogic id="90378713" programID="0" offset="0" type="actuated">
        <phase duration="42" maxDur="50" minDur="5" state="GGGG"/>
        <phase duration="3" state="yyyy"/>
        <phase duration="42" maxDur="50" minDur="5" state="GGGG"/>
        <phase duration="3" state="yyyy"/>
    </tlLogic>
    <tlLogic id="90378716" programID="0" offset="0" type="actuated">
        <phase duration="42" maxDur="50" minDur="5" state="GGrr"/>
        <phase duration="3" state="yyrr"/>
        <phase duration="42" maxDur="50" minDur="5" state="rrGG"/>
        <phase duration="3" state="rryy"/>
    </tlLogic>
    <tlLogic id="cluster_1842003093_299610558" programID="0" offset="0" type="actuated">
        <phase duration="42" maxDur="50" minDur="5" state="GGGGGrrr"/>
        <phase duration="3" state="yyyyyrrr"/>
        <phase duration="42" maxDur="50" minDur="5" state="rrrrrGGG"/>
        <phase duration="3" state="rrrrryyy"/>
    </tlLogic>
    <tlLogic id="joinedS_1788788654_343646735" programID="0" offset="0" type="actuated">
        <phase duration="33" maxDur="50" minDur="5" state="GGGGgGGgrrrGGgrr"/>
        <phase duration="3" state="yyyygyygrrryygrr"/>
        <phase duration="6" maxDur="50" minDur="5" state="rrrGGrrGrrrrrGrr"/>
        <phase duration="3" state="rrryyrryrrrrryrr"/>
        <phase duration="33" maxDur="50" minDur="5" state="GGrrrrrrGGgrrrGG"/>
        <phase duration="3" state="yyrrrrrryygrrryy"/>
        <phase duration="6" maxDur="50" minDur="5" state="GGrrrrrrGGGrrrrr"/>
        <phase duration="3" state="yyrrrrrryyyrrrrr"/>
    </tlLogic>
    <tlLogic id="joinedS_cluster_10916547339_1352647052_1352647054_299613131_#4more_cluster_1352647036_4751729004_4751729011_5305836806" programID="0" offset="0" type="actuated">
        <phase duration="16" maxDur="50" minDur="5" state="rrrGGGGGGGrrGGGGrr"/>
        <phase duration="3" state="rrryyyyyyyrryyyyrr"/>
        <phase duration="2" state="rrrrrrrrrrrrrrrrrr"/>
        <phase duration="18" maxDur="50" minDur="5" state="GGGrrrrrGGGGrrrrrr"/>
        <phase duration="3" state="yyyrrrrryyyyrrrrrr"/>
        <phase duration="2" state="rrrrrrrrrrrrrrrrrr"/>
        <phase duration="18" maxDur="50" minDur="5" state="GGGrrrrrGGrrrrrrGG"/>
        <phase duration="3" state="yyyrrrrryyrrrrrryy"/>
        <phase duration="2" state="rrrrrrrrrrrrrrrrrr"/>
        <phase duration="18" maxDur="50" minDur="5" state="GGGrrrrrGGGGrrrrrr"/>
        <phase duration="3" state="yyyrrrrryyyyrrrrrr"/>
        <phase duration="2" state="rrrrrrrrrrrrrrrrrr"/>
    </tlLogic>
    <tlLogic id="joinedS_cluster_130075590_1352647030_cluster_1352647001_5307690020" programID="0" offset="0" type="actuated">
        <phase duration="27" maxDur="50" minDur="5" state="rrGGGGGGrrrrr"/>
        <phase duration="3" state="rryyyyyyrrrrr"/>
        <phase duration="27" maxDur="50" minDur="5" state="GGGGrGGrGGrrr"/>
        <phase duration="3" state="yyyyryyryyrrr"/>
        <phase duration="27" maxDur="50" minDur="5" state="GGGGrrrrrrGGG"/>
        <phase duration="3" state="yyyyrrrrrryyy"/>
    </tlLogic>
    <!-- Changed Elements -->
    <tlLogic id="GS_2585503026" programID="0" >
        <phase duration="42" maxDur="50" minDur="5" state="GGGrr"/>
        <phase duration="3" state="yyyrr"/>
        <phase duration="42" maxDur="50" minDur="5" state="rrrGG"/>
        <phase duration="3" state="rrryy"/>
    </tlLogic>
    <tlLogic id="GS_3446699979" programID="0" >
        <phase duration="42" maxDur="50" minDur="5" state="GGGGrrr"/>
        <phase duration="3" state="yyyyrrr"/>
        <phase duration="42" maxDur="50" minDur="5" state="rrrGGGG"/>
        <phase duration="3" state="rrryyyy"/>
    </tlLogic>
    <!-- Created Elements -->
    <connection from="-1011321769#2" fromLane="0" to="-1011328582#2" toLane="0" linkIndex="5" tl="311886808"/>
    <connection from="-1011321769#2" fromLane="1" to="-1011328582#2" toLane="1" linkIndex="6" tl="311886808"/>
    <connection from="-1011321769#2" fromLane="1" to="207719827#0" toLane="0" linkIndex="7" tl="311886808"/>
    <connection from="-1011328582#2" fromLane="0" to="-207724059#2" toLane="0" linkIndex="4" tl="311886933"/>
    <connection from="-1011328582#2" fromLane="1" to="-207724059#2" toLane="1" linkIndex="5" tl="311886933"/>
    <connection from="-1016392202#3" fromLane="0" to="-128363658#6" toLane="0" linkIndex="4" tl="479183608"/>
    <connection from="-1016392202#3" fromLane="1" to="1172312751#0" toLane="0" linkIndex="5" tl="479183608"/>
    <connection from="-1016392202#3" fromLane="1" to="-128363658#6" toLane="1" linkIndex="6" tl="479183608"/>
    <connection from="-1172312751#1" fromLane="0" to="-128363658#6" toLane="1" linkIndex="2" tl="479183608"/>
    <connection from="-1172312751#1" fromLane="1" to="1016392202#0" toLane="0" linkIndex="3" tl="479183608"/>
    <connection from="-1172489852" fromLane="0" to="1007088655" toLane="0" linkIndex="0" tl="111450380"/>
    <connection from="-1172489852" fromLane="1" to="1007088655" toLane="1" linkIndex="1" tl="111450380"/>
    <connection from="-1174565660" fromLane="0" to="-1174565661#1" toLane="0" linkIndex="2" tl="126617428"/>
    <connection from="-1174565660" fromLane="0" to="1175952372#0" toLane="0" linkIndex="3" tl="126617428"/>
    <connection from="-1174565662#1" fromLane="0" to="-1016548268#3" toLane="0" linkIndex="6" tl="122452427"/>
    <connection from="-1174565662#1" fromLane="1" to="1083211596#0" toLane="1" linkIndex="7" tl="122452427"/>
    <connection from="-1174623150#1" fromLane="0" to="-35475028#4" toLane="0" linkIndex="8" tl="joinedS_1788788654_343646735"/>
    <connection from="-1174623150#1" fromLane="0" to="-39654094#3" toLane="0" linkIndex="9" tl="joinedS_1788788654_343646735"/>
    <connection from="-1174623150#1" fromLane="1" to="-193149514#2" toLane="0" linkIndex="10" tl="joinedS_1788788654_343646735"/>
    <connection from="-13274855#11" fromLane="0" to="-13274855#6" toLane="0" linkIndex="4" tl="111439225"/>
    <connection from="-13274855#11" fromLane="1" to="-13274855#6" toLane="1" linkIndex="5" tl="111439225"/>
    <connection from="-13274855#6" fromLane="0" to="-13274855#3" toLane="0" linkIndex="3" tl="311887306"/>
    <connection from="-13274855#6" fromLane="1" to="-13274855#3" toLane="1" linkIndex="4" tl="311887306"/>
    <connection from="-13274855#6" fromLane="1" to="28394071#0" toLane="0" linkIndex="5" tl="311887306"/>
    <connection from="-207719827#1" fromLane="0" to="1011321769#0" toLane="0" linkIndex="0" tl="311886808"/>
    <connection from="-207719827#1" fromLane="0" to="-1011328582#2" toLane="1" linkIndex="1" tl="311886808"/>
    <connection from="-207724059#2" fromLane="0" to="-13274855#11" toLane="0" linkIndex="3" tl="311887304"/>
    <connection from="-207724059#2" fromLane="1" to="-13274855#11" toLane="1" linkIndex="4" tl="311887304"/>
    <connection from="-207724059#2" fromLane="1" to="1011328575#0" toLane="0" linkIndex="5" tl="311887304"/>
    <connection from="-304690306#1" fromLane="0" to="549269430" toLane="2" linkIndex="16" tl="joinedS_cluster_10916547339_1352647052_1352647054_299613131_#4more_cluster_1352647036_4751729004_4751729011_5305836806"/>
    <connection from="-304690306#1" fromLane="1" to="549269430" toLane="3" linkIndex="17" tl="joinedS_cluster_10916547339_1352647052_1352647054_299613131_#4more_cluster_1352647036_4751729004_4751729011_5305836806"/>
    <connection from="-434882592#1" fromLane="0" to="741767467#0" toLane="0" linkIndex="0" tl="90378713"/>
    <connection from="-453493822#1" fromLane="0" to="-39654345#1" toLane="0" linkIndex="4" tl="343646810"/>
    <connection from="-453493822#1" fromLane="0" to="1120859258#0" toLane="2" linkIndex="5" tl="343646810"/>
    <connection from="-453761207#2" fromLane="0" to="453761208" toLane="0" linkIndex="4" tl="126617430"/>
    <connection from="-453761207#2" fromLane="0" to="453761208" toLane="1" linkIndex="5" tl="126617430"/>
    <connection from="-453761207#2" fromLane="0" to="-13715562#1" toLane="0" linkIndex="6" tl="126617430"/>
    <connection from="-482261341#1" fromLane="0" to="39895287" toLane="0" linkIndex="3" tl="128673223"/>
    <connection from="-482261341#1" fromLane="0" to="-482261338#1" toLane="1" linkIndex="4" tl="128673223"/>
    <connection from="1011328582#0" fromLane="0" to="207719827#0" toLane="0" linkIndex="2" tl="311886808"/>
    <connection from="1011328582#0" fromLane="0" to="1011321769#0" toLane="0" linkIndex="3" tl="311886808"/>
    <connection from="1011328582#0" fromLane="1" to="1011321769#0" toLane="1" linkIndex="4" tl="311886808"/>
    <connection from="1011713094" fromLane="0" to="549269430" toLane="0" linkIndex="10" tl="joinedS_cluster_10916547339_1352647052_1352647054_299613131_#4more_cluster_1352647036_4751729004_4751729011_5305836806"/>
    <connection from="1011713094" fromLane="0" to="549269430" toLane="1" linkIndex="11" tl="joinedS_cluster_10916547339_1352647052_1352647054_299613131_#4more_cluster_1352647036_4751729004_4751729011_5305836806"/>
    <connection from="1014684310#1" fromLane="0" to="1175952372#0" toLane="0" linkIndex="4" tl="126617428"/>
    <connection from="1014684310#1" fromLane="1" to="1174565660" toLane="1" linkIndex="5" tl="126617428"/>
    <connection from="1014684310#1" fromLane="2" to="1174565660" toLane="2" linkIndex="6" tl="126617428"/>
    <connection from="1014684310#1" fromLane="2" to="-1174565661#1" toLane="0" linkIndex="7" tl="126617428"/>
    <connection from="1016548268#0" fromLane="0" to="1083211596#0" toLane="0" linkIndex="0" tl="122452427"/>
    <connection from="1016548268#0" fromLane="0" to="1174565662#0" toLane="0" linkIndex="1" tl="122452427"/>
    <connection from="1016548269#0" fromLane="0" to="-1016548268#3" toLane="0" linkIndex="2" tl="122452427"/>
    <connection from="1016548269#0" fromLane="0" to="1083211596#0" toLane="0" linkIndex="3" tl="122452427"/>
    <connection from="1016548269#0" fromLane="1" to="1083211596#0" toLane="1" linkIndex="4" tl="122452427"/>
    <connection from="1016548269#0" fromLane="2" to="1174565662#0" toLane="0" linkIndex="5" tl="122452427"/>
    <connection from="1172479456#0" fromLane="0" to="13274855#7" toLane="0" linkIndex="0" tl="111439225"/>
    <connection from="1172479456#0" fromLane="1" to="-13274855#6" toLane="1" linkIndex="1" tl="111439225"/>
    <connection from="1174565661#0" fromLane="0" to="1175952372#0" toLane="0" linkIndex="0" tl="126617428"/>
    <connection from="1174565661#0" fromLane="1" to="1174565660" toLane="2" linkIndex="1" tl="126617428"/>
    <connection from="1174565664#2" fromLane="0" to="1174565663#0" toLane="0" linkIndex="3" tl="343646851"/>
    <connection from="1174565664#2" fromLane="1" to="1174565663#0" toLane="1" linkIndex="4" tl="343646851"/>
    <connection from="1174565664#2" fromLane="2" to="1174565663#0" toLane="2" linkIndex="5" tl="343646851"/>
    <connection from="1174565664#2" fromLane="2" to="39590262#0" toLane="0" linkIndex="6" tl="343646851"/>
    <connection from="1174567450" fromLane="0" to="482261341#0" toLane="0" linkIndex="0" tl="128673223"/>
    <connection from="1174567450" fromLane="1" to="482261341#0" toLane="1" linkIndex="1" tl="128673223"/>
    <connection from="1174567450" fromLane="1" to="39895287" toLane="0" linkIndex="2" tl="128673223"/>
    <connection from="1174835633#0" fromLane="0" to="549269430" toLane="0" linkIndex="12" tl="joinedS_cluster_10916547339_1352647052_1352647054_299613131_#4more_cluster_1352647036_4751729004_4751729011_5305836806"/>
    <connection from="1174835633#0" fromLane="1" to="549269430" toLane="1" linkIndex="13" tl="joinedS_cluster_10916547339_1352647052_1352647054_299613131_#4more_cluster_1352647036_4751729004_4751729011_5305836806"/>
    <connection from="1174835633#0" fromLane="2" to="549269430" toLane="2" linkIndex="14" tl="joinedS_cluster_10916547339_1352647052_1352647054_299613131_#4more_cluster_1352647036_4751729004_4751729011_5305836806"/>
    <connection from="1174835633#0" fromLane="3" to="549269430" toLane="3" linkIndex="15" tl="joinedS_cluster_10916547339_1352647052_1352647054_299613131_#4more_cluster_1352647036_4751729004_4751729011_5305836806"/>
    <connection from="120692681#0" fromLane="0" to="304690306#0" toLane="0" linkIndex="8" tl="joinedS_cluster_10916547339_1352647052_1352647054_299613131_#4more_cluster_1352647036_4751729004_4751729011_5305836806"/>
    <connection from="120692681#0" fromLane="1" to="304690306#0" toLane="1" linkIndex="9" tl="joinedS_cluster_10916547339_1352647052_1352647054_299613131_#4more_cluster_1352647036_4751729004_4751729011_5305836806"/>
    <connection from="12296762#0" fromLane="0" to="12296762#2" toLane="0" linkIndex="0" tl="129665112"/>
    <connection from="12296762#0" fromLane="0" to="13843680#2" toLane="0" linkIndex="1" tl="129665112"/>
    <connection from="128363658#0" fromLane="0" to="1016392202#0" toLane="0" linkIndex="0" tl="479183608"/>
    <connection from="128363658#0" fromLane="0" to="1172312751#0" toLane="0" linkIndex="1" tl="479183608"/>
    <connection from="128463452#0" fromLane="0" to="1165291407" toLane="0" linkIndex="3" tl="335560491"/>
    <connection from="128463452#0" fromLane="1" to="167487441" toLane="0" linkIndex="4" tl="335560491"/>
    <connection from="13274855#2" fromLane="0" to="28394071#0" toLane="0" linkIndex="0" tl="311887306"/>
    <connection from="13274855#2" fromLane="0" to="13274855#4" toLane="0" linkIndex="1" tl="311887306"/>
    <connection from="13274855#2" fromLane="1" to="13274855#4" toLane="1" linkIndex="2" tl="311887306"/>
    <connection from="13274855#4" fromLane="0" to="13274855#7" toLane="0" linkIndex="2" tl="111439225"/>
    <connection from="13274855#4" fromLane="1" to="13274855#7" toLane="1" linkIndex="3" tl="111439225"/>
    <connection from="13274855#7" fromLane="0" to="1011328575#0" toLane="0" linkIndex="0" tl="311887304"/>
    <connection from="13274855#7" fromLane="0" to="207724059#0" toLane="0" linkIndex="1" tl="311887304"/>
    <connection from="13274855#7" fromLane="1" to="207724059#0" toLane="1" linkIndex="2" tl="311887304"/>
    <connection from="13715172#0" fromLane="0" to="189908446" toLane="0" linkIndex="0" tl="3446699996"/>
    <connection from="13715562#0" fromLane="0" to="453761207#0" toLane="0" linkIndex="7" tl="126617430"/>
    <connection from="13715562#0" fromLane="1" to="453761208" toLane="1" linkIndex="8" tl="126617430"/>
    <connection from="13715562#0" fromLane="2" to="453761208" toLane="2" linkIndex="9" tl="126617430"/>
    <connection from="13843680#1" fromLane="0" to="12296762#2" toLane="0" linkIndex="2" tl="129665112"/>
    <connection from="13843680#1" fromLane="0" to="13843680#2" toLane="0" linkIndex="3" tl="129665112"/>
    <connection from="13849088#2" fromLane="0" to="482261341#0" toLane="0" linkIndex="5" tl="128673223"/>
    <connection from="13849088#2" fromLane="0" to="39895287" toLane="0" linkIndex="6" tl="128673223"/>
    <connection from="13849088#2" fromLane="0" to="-482261338#1" toLane="1" linkIndex="7" tl="128673223"/>
    <connection from="13854847#0" fromLane="0" to="608418576#0" toLane="0" linkIndex="0" tl="90378716"/>
    <connection from="13854847#0" fromLane="1" to="608418576#0" toLane="1" linkIndex="1" tl="90378716"/>
    <connection from="167487371#0" fromLane="0" to="1165291407" toLane="0" linkIndex="5" tl="335560491"/>
    <connection from="167487371#0" fromLane="1" to="1165291407" toLane="1" linkIndex="6" tl="335560491"/>
    <connection from="167487372#2" fromLane="0" to="1165291408#0" toLane="0" linkIndex="0" tl="335560491"/>
    <connection from="167487372#2" fromLane="1" to="1165291408#0" toLane="1" linkIndex="1" tl="335560491"/>
    <connection from="167487441" fromLane="0" to="1165291408#0" toLane="1" linkIndex="2" tl="335560491"/>
    <connection from="193149514#0" fromLane="0" to="1174623150#0" toLane="0" linkIndex="11" tl="joinedS_1788788654_343646735"/>
    <connection from="193149514#0" fromLane="0" to="-35475028#4" toLane="0" linkIndex="12" tl="joinedS_1788788654_343646735"/>
    <connection from="193149514#0" fromLane="1" to="-39654094#3" toLane="0" linkIndex="13" tl="joinedS_1788788654_343646735"/>
    <connection from="207724059#0" fromLane="0" to="1011328582#0" toLane="0" linkIndex="2" tl="311886933"/>
    <connection from="207724059#0" fromLane="1" to="1011328582#0" toLane="1" linkIndex="3" tl="311886933"/>
    <connection from="28394015#0" fromLane="0" to="1011328582#0" toLane="0" linkIndex="0" tl="311886933"/>
    <connection from="28394015#0" fromLane="0" to="-207724059#2" toLane="1" linkIndex="1" tl="311886933"/>
    <connection from="31396393#0" fromLane="0" to="-13715562#1" toLane="0" linkIndex="0" tl="126617430"/>
    <connection from="31396393#0" fromLane="0" to="453761207#0" toLane="0" linkIndex="1" tl="126617430"/>
    <connection from="31396393#0" fromLane="1" to="453761207#0" toLane="1" linkIndex="2" tl="126617430"/>
    <connection from="31396393#0" fromLane="1" to="453761208" toLane="2" linkIndex="3" tl="126617430"/>
    <connection from="34885150#0" fromLane="0" to="159959891#0" toLane="0" linkIndex="5" tl="cluster_1842003093_299610558"/>
    <connection from="34885150#0" fromLane="0" to="434879916#0" toLane="0" linkIndex="6" tl="cluster_1842003093_299610558"/>
    <connection from="34885150#0" fromLane="1" to="434879917#0" toLane="1" linkIndex="7" tl="cluster_1842003093_299610558"/>
    <connection from="35475028#2" fromLane="0" to="-39654094#3" toLane="0" linkIndex="5" tl="joinedS_1788788654_343646735"/>
    <connection from="35475028#2" fromLane="0" to="-193149514#2" toLane="0" linkIndex="6" tl="joinedS_1788788654_343646735"/>
    <connection from="35475028#2" fromLane="0" to="1174623150#0" toLane="0" linkIndex="7" tl="joinedS_1788788654_343646735"/>
    <connection from="39597779#0" fromLane="0" to="1174565663#0" toLane="0" linkIndex="0" tl="343646851"/>
    <connection from="39597779#0" fromLane="0" to="1174565663#0" toLane="1" linkIndex="1" tl="343646851"/>
    <connection from="39597779#0" fromLane="0" to="39590262#0" toLane="0" linkIndex="2" tl="343646851"/>
    <connection from="39654094#0" fromLane="0" to="-193149514#2" toLane="0" linkIndex="14" tl="joinedS_1788788654_343646735"/>
    <connection from="39654094#0" fromLane="0" to="1174623150#0" toLane="0" linkIndex="15" tl="joinedS_1788788654_343646735"/>
    <connection from="39654345#0" fromLane="0" to="1120859258#0" toLane="0" linkIndex="6" tl="343646810"/>
    <connection from="39654345#0" fromLane="0" to="1120859258#0" toLane="1" linkIndex="7" tl="343646810"/>
    <connection from="39654345#0" fromLane="0" to="453493822#0" toLane="0" linkIndex="8" tl="343646810"/>
    <connection from="448850571#0" fromLane="0" to="159959891#0" toLane="0" linkIndex="0" tl="cluster_1842003093_299610558"/>
    <connection from="448850571#0" fromLane="1" to="159959891#0" toLane="1" linkIndex="1" tl="cluster_1842003093_299610558"/>
    <connection from="453493826#0" fromLane="0" to="-39654345#1" toLane="0" linkIndex="0" tl="343646810"/>
    <connection from="453493826#0" fromLane="1" to="1120859258#0" toLane="1" linkIndex="1" tl="343646810"/>
    <connection from="453493826#0" fromLane="2" to="1120859258#0" toLane="2" linkIndex="2" tl="343646810"/>
    <connection from="453493826#0" fromLane="2" to="453493822#0" toLane="0" linkIndex="3" tl="343646810"/>
    <connection from="480146199" fromLane="0" to="480146196" toLane="0" linkIndex="2" tl="joinedS_cluster_130075590_1352647030_cluster_1352647001_5307690020"/>
    <connection from="480146199" fromLane="1" to="480146196" toLane="1" linkIndex="3" tl="joinedS_cluster_130075590_1352647030_cluster_1352647001_5307690020"/>
    <connection from="480146199" fromLane="2" to="480146198#0" toLane="0" linkIndex="4" tl="joinedS_cluster_130075590_1352647030_cluster_1352647001_5307690020"/>
    <connection from="536714314#2" fromLane="0" to="637225052" toLane="0" linkIndex="0" tl="joinedS_cluster_130075590_1352647030_cluster_1352647001_5307690020"/>
    <connection from="536714314#2" fromLane="1" to="637225052" toLane="1" linkIndex="1" tl="joinedS_cluster_130075590_1352647030_cluster_1352647001_5307690020"/>
    <connection from="549444984#0" fromLane="0" to="434879916#0" toLane="0" linkIndex="2" tl="cluster_1842003093_299610558"/>
    <connection from="549444984#0" fromLane="0" to="434879917#0" toLane="0" linkIndex="3" tl="cluster_1842003093_299610558"/>
    <connection from="549444984#0" fromLane="1" to="434879917#0" toLane="1" linkIndex="4" tl="cluster_1842003093_299610558"/>
    <connection from="608418574#1" fromLane="0" to="434882592#0" toLane="0" linkIndex="1" tl="90378713"/>
    <connection from="608418574#1" fromLane="1" to="741767467#0" toLane="1" linkIndex="2" tl="90378713"/>