<?xml version="1.0" encoding="UTF-8"?>

<!-- generated on 2023-07-06 04:28:03.131199 by netdiff.py UNKNOWN
<configuration>
    <source value="porto-osm-geo.net.xml"/>
    <dest value="porto-fixed.net.xml"/>
    <outprefix value="diff"/>
</configuration>
-->

<types>
    <!-- Deleted Elements -->
    <!-- Created Elements -->
    <!-- Changed Elements -->
</types>
