<?xml version="1.0" encoding="UTF-8"?>

<!-- generated on 2023-05-25 20:59:08.773832 by netdiff.py UNKNOWN
<configuration>
    <source value="porto-osm-geo.net.xml"/>
    <dest value="porto-fixed.net.xml"/>
    <outprefix value="diff"/>
</configuration>
-->

<edges version="1.16" xmlns:xsi="http://www.w3.org/2001/XMLSchema-instance" xsi:noNamespaceSchemaLocation="http://sumo.dlr.de/xsd/edgediff_file.xsd">
    <!-- Deleted Elements -->
    <!-- Created Elements -->
    <roundabout edges="1006963518#0 1006963519#0 1007088655 12296720 734260455 734260456" nodes="111447960 111448461 111448467 111449494 111450380 4505062028"/>
    <roundabout edges="1007088657#0 1007088658 1007088659 1007112727#0 1007112727#1 1106585343 12303132" nodes="111508025 111508026 111508341 111619640 111619646 6228577695 6228577699"/>
    <roundabout edges="1007441784 151784037#0 151784037#1 151784037#2 151784037#3 151784037#4 151784037#5 151784037#6" nodes="1646225378 1646225381 1646225395 1646225413 1646225419 1646225428 4081012464 9661846658"/>
    <roundabout edges="1010236993 434897747 584422300 730848985 761561721 761561722 859079013 859079014" nodes="111635403 111636733 111636738 111636742 111636743 4468021923 5297848077 5476877921"/>
    <roundabout edges="1010326123 1010329173 12294186 434896887#0" nodes="1239645067 784545910 cluster_10916137204_111428028_111429621_1249809161_#3more cluster_111428003_111428008_111503635_1249809175"/>
    <roundabout edges="1011321777#0 1011321778 1011321779 1011321780 1011321781#0 1011321782 207634526" nodes="311887529 314042698 428214870 848507147 90379359 90379616 90379618"/>
    <roundabout edges="1014684311 1016548267 1165311277#0 1165311278#0 1165311279#0 453761690#0 608419462#0 738994725 738994726#0 738996911#0" nodes="10838978984 10838978985 126634476 2363578524 2363578528 2363578530 2363578534 299611700 5284320721 9924997146"/>
    <roundabout edges="1016537009 1016537010 1016537011 1016537012 1082399101 1082399102 434897749 859507144#0 859507144#1" nodes="114310714 114320429 114320432 114320445 114320452 114320458 114320465 9681200396 9681200397"/>
    <roundabout edges="1016567879 1016567880 1016567881 1016567882 1016567883#0 1016567883#1 13703488" nodes="126401370 126404025 126404027 126404031 1664450373 7801967322 9654865826"/>
    <roundabout edges="1017121217 210073247 36268853 482324638#0 549253233#0" nodes="1788785773 3398246695 423185164 4708680492 4751729050"/>
    <roundabout edges="1018375458 1018375459 859507152 94482360" nodes="1097394510 1097394513 3846230466 3846230517"/>
    <roundabout edges="1018375460 1018375461 1018551331 1018551332 859507153 95127166" nodes="1103500473 1103500489 1103500491 1103500494 1548078162 1548078163"/>
    <roundabout edges="1018551325 1018551326 1018551327 1018551328 1018551329 1018551330 1174471774 35260649" nodes="1548084440 1731168913 1731168919 1731168947 1731168950 413301118 413301119 9681208879"/>
    <roundabout edges="1018551340 134085455#0 134085455#1 134085457#0" nodes="1474720652 1474720662 1731168896 cluster_1474720674_1474720683"/>
    <roundabout edges="1019725092 207890057 207890059 258888773 306059688#0" nodes="2181328483 2181328492 2181328523 3108425106 422547991"/>
    <roundabout edges="1028336215 1028346889 434896884 741581308 741581702 741581703" nodes="112664262 1224763484 1224763512 1731170837 447872446 447872451"/>
    <roundabout edges="1070035543 1070035544 1070241947 508109562 603025759" nodes="3859920451 3859920452 414127321 414127323 414127327"/>
    <roundabout edges="1070035546 1070241943 1070241944 35331290#0 35331290#1 35331290#2 35331290#4" nodes="414134066 414134077 414134080 414134082 414134087 414952121 787318152"/>
    <roundabout edges="1106177603 498298757#0 642609449 734630278#0 800460939#0 8367068#0" nodes="1110698273 1788787056 25632285 25632293 4708512446 cluster_1788787039_1788787061_4685392607_4685392609_#1more"/>
    <roundabout edges="1120859255 1120859257 35044072" nodes="411029259 411029260 cluster_411029269_416011733_425725925_5310457030"/>
    <roundabout edges="1125588717#0 1125588717#1 1125588717#2 1125588719 1125588720 1125637640 1125637641 1134132876 25410513" nodes="1548060069 1548061161 276935832 276935833 276935835 276935836 276935838 276935847 3718844738"/>
    <roundabout edges="1164717213 189908446 608418573#0 608418574#0 608418574#1 608418575#0 608418576#0 608418577 608418580#0 734269564#0 741767467#0" nodes="111799455 112675715 2460613853 2585503026 3446699975 3446699979 3446699996 4468690331 90378713 90378716 9205647871"/>
    <roundabout edges="1174333912 1174429370 1174429371 386578584 859079006 859079007 859079008 859079009" nodes="112594236 2322018094 2322018099 353289223 353289224 4438014887 4438030091 4438030098"/>
    <roundabout edges="120827014 120827015 12296600#3 207634511#0" nodes="1353859185 1353859187 1353859198 cluster_111452218_1353859190"/>
    <roundabout edges="12388490#0 12388490#1 12388490#2 12388490#3 12388490#4 12388490#5" nodes="112618339 112618345 112618347 112618350 112618358 112618365"/>
    <roundabout edges="13713923#1 40893743 40893744#0 40893745" nodes="126580303 126581609 497690595 497690598"/>
    <roundabout edges="13798688 13798716 13798768 13798803" nodes="128616477 128616478 128617100 128617101"/>
    <roundabout edges="141434582 141435246#1 414268432#2 440422431" nodes="1548081122 1548081413 4381460222 5291943567"/>
    <roundabout edges="161124118#0 161124118#2 161124118#3 161124118#4 161124118#5 161124118#6" nodes="1731169833 1731170026 1731170053 1731170059 1731170064 cluster_1731170017_1731170032_1731170040"/>
    <roundabout edges="161124119#0 161124119#1 161124119#2 161124119#5 161124119#6" nodes="1731169273 1731169338 1731169353 1731169370 1731169375"/>
    <roundabout edges="256165014 256277806#0 256277806#3" nodes="2618547499 2618547510 478089195"/>
    <roundabout edges="35139979#1 35139979#3 35139979#5" nodes="411014903 cluster_1548084517_411014904_424016753 cluster_1548084656_411014900_411014909"/>
    <roundabout edges="41018361#10 41018361#15 41018361#17 41018361#9" nodes="3654771849 500009823 500009832 500009833"/>
    <roundabout edges="41182340#0 41182340#9 41182342 975262699#0" nodes="503018083 503018096 503018212 8402368405"/>
    <roundabout edges="448867786 724454816 724454817#2 724454819 724454821" nodes="1216466345 4612052763 4612052768 4703906251 473859815"/>
    <roundabout edges="94482354#1 94482354#2 94482354#3 94482354#6" nodes="1097394538 1097394605 1097394631 3846230289"/>
    <!-- Changed Elements -->
    <edge id="1165291408#0" shape="531315.95,4555983.37 531311.23,4556000.37 531303.35,4556022.84"/>
    <edge id="1174319879" speed="13.89"/>
    <edge id="13798768" spreadType="right"/>
    <edge id="167487371#0" shape="531300.48,4556022.33 531303.95,4555997.91 531307.71,4555982.89"/>
    <edge id="480140407#0" shape="533145.77,4557822.17 533137.95,4557813.68"/>
    <edge id="480140407#1" shape="533137.96,4557813.49 533107.21,4557759.05 533076.79,4557707.02 533063.38,4557684.87"/>
</edges>
