<?xml version="1.0" encoding="UTF-8"?>

<!-- generated on 2023-06-22 23:45:16 by Eclipse SUMO netedit Version 1.17.0
-->

<additional xmlns:xsi="http://www.w3.org/2001/XMLSchema-instance" xsi:noNamespaceSchemaLocation="http://sumo.dlr.de/xsd/additional_file.xsd">
    <!-- TAZs -->
    <taz id="1" shape="532708.96,4555236.42 532858.72,4555236.42 532858.72,4555378.94 532708.96,4555378.94 532708.96,4555236.42" color="blue">
        <tazSource id="-226624856#1" weight="1.00"/>
        <tazSink id="-226624856#1" weight="1.00"/>
        <tazSource id="210328147#0" weight="1.00"/>
        <tazSink id="210328147#0" weight="1.00"/>
        <tazSource id="226624856#0" weight="1.00"/>
        <tazSink id="226624856#0" weight="1.00"/>
        <tazSource id="26207695#0" weight="1.00"/>
        <tazSink id="26207695#0" weight="1.00"/>
    </taz>
    <taz id="10" shape="532283.56,4555140.68 532348.14,4555140.68 532348.14,4555243.31 532283.56,4555243.31 532283.56,4555140.68" color="blue">
        <tazSource id="-26119844#2" weight="1.00"/>
        <tazSink id="-26119844#2" weight="1.00"/>
        <tazSource id="216969809#3" weight="1.00"/>
        <tazSink id="216969809#3" weight="1.00"/>
        <tazSource id="26119844#0" weight="1.00"/>
        <tazSink id="26119844#0" weight="1.00"/>
        <tazSource id="434857293#0" weight="1.00"/>
        <tazSink id="434857293#0" weight="1.00"/>
    </taz>
    <taz id="100" shape="533369.86,4554278.84 533471.93,4554278.84 533471.93,4554738.45 533369.86,4554738.45 533369.86,4554278.84" color="blue">
        <tazSource id="173072164" weight="1.00"/>
        <tazSink id="173072164" weight="1.00"/>
        <tazSource id="49982592" weight="1.00"/>
        <tazSink id="49982592" weight="1.00"/>
    </taz>
    <taz id="101" shape="532753.36,4554286.33 532797.91,4554286.33 532797.91,4554463.81 532753.36,4554463.81 532753.36,4554286.33" color="blue">
        <tazSource id="-165660759" weight="1.00"/>
        <tazSink id="-165660759" weight="1.00"/>
        <tazSource id="31572903#0" weight="1.00"/>
        <tazSink id="31572903#0" weight="1.00"/>
    </taz>
    <taz id="103" shape="526013.11,4558080.33 526124.70,4558080.33 526124.70,4558201.50 526013.11,4558201.50 526013.11,4558080.33" color="blue">
        <tazSource id="1006945691#0" weight="1.00"/>
        <tazSink id="1006945691#0" weight="1.00"/>
        <tazSource id="12303323#0" weight="1.00"/>
        <tazSink id="12303323#0" weight="1.00"/>
    </taz>
    <taz id="104" shape="526737.74,4557897.87 526829.99,4557897.87 526829.99,4557992.07 526737.74,4557992.07 526737.74,4557897.87" color="blue">
        <tazSource id="160503594#0" weight="0.00"/>
        <tazSink id="160503594#0" weight="1.00"/>
        <tazSource id="172956369#0" weight="1.00"/>
        <tazSink id="172956369#0" weight="0.00"/>
        <tazSource id="27426560#0" weight="0.00"/>
        <tazSink id="27426560#0" weight="1.00"/>
        <tazSource id="909967317#0" weight="1.00"/>
        <tazSink id="909967317#0" weight="0.00"/>
    </taz>
    <taz id="107" shape="528095.74,4559236.87 528287.12,4559236.87 528287.12,4559439.98 528095.74,4559439.98 528095.74,4559236.87" color="blue">
        <tazSource id="597084106" weight="1.00"/>
        <tazSink id="597084106" weight="1.00"/>
        <tazSource id="738884715" weight="1.00"/>
        <tazSink id="738884715" weight="1.00"/>
    </taz>
    <taz id="108" shape="529036.53,4558631.97 529161.34,4558631.97 529161.34,4558854.07 529036.53,4558854.07 529036.53,4558631.97" color="blue">
        <tazSource id="172956446" weight="1.00"/>
        <tazSink id="172956446" weight="1.00"/>
        <tazSource id="224644388" weight="1.00"/>
        <tazSink id="224644388" weight="1.00"/>
        <tazSource id="27102294#0" weight="1.00"/>
        <tazSink id="27102294#0" weight="1.00"/>
    </taz>
    <taz id="11" shape="531632.33,4555477.19 532422.96,4555477.19 532422.96,4555799.47 531632.33,4555799.47 531632.33,4555477.19" color="blue">
        <tazSource id="1172502991#0" weight="1.00"/>
        <tazSink id="1172502991#0" weight="1.00"/>
        <tazSource id="1172502992#0" weight="1.00"/>
        <tazSink id="1172502992#0" weight="1.00"/>
        <tazSource id="128825638#1" weight="1.00"/>
        <tazSink id="128825638#1" weight="1.00"/>
        <tazSource id="281224991" weight="1.00"/>
        <tazSink id="281224991" weight="1.00"/>
        <tazSource id="595164143#2" weight="1.00"/>
        <tazSink id="595164143#2" weight="1.00"/>
        <tazSource id="595164143#5" weight="1.00"/>
        <tazSink id="595164143#5" weight="1.00"/>
        <tazSource id="59525260#5" weight="1.00"/>
        <tazSink id="59525260#5" weight="1.00"/>
    </taz>
    <taz id="111" shape="531005.13,4558882.21 531016.41,4558882.21 531016.41,4558913.35 531005.13,4558913.35 531005.13,4558882.21" color="blue">
        <tazSource id="-1123747348#1" weight="1.00"/>
        <tazSink id="-1123747348#1" weight="0.00"/>
        <tazSource id="1123747348#0" weight="0.00"/>
        <tazSink id="1123747348#0" weight="1.00"/>
    </taz>
    <taz id="112" shape="531518.40,4559278.06 531576.10,4559278.06 531576.10,4559405.00 531518.40,4559405.00 531518.40,4559278.06" color="blue">
        <tazSource id="219537591" weight="1.00"/>
        <tazSink id="219537591" weight="1.00"/>
        <tazSource id="453275805" weight="1.00"/>
        <tazSink id="453275805" weight="1.00"/>
    </taz>
    <taz id="113" shape="532420.27,4559191.64 532711.60,4559191.64 532711.60,4559320.22 532420.27,4559320.22 532420.27,4559191.64" color="blue">
        <tazSource id="-252334869" weight="0.00"/>
        <tazSink id="-252334869" weight="1.00"/>
        <tazSource id="-63844506#1" weight="0.00"/>
        <tazSink id="-63844506#1" weight="1.00"/>
        <tazSource id="206867055" weight="1.00"/>
        <tazSink id="206867055" weight="0.00"/>
        <tazSource id="252338683" weight="1.00"/>
        <tazSink id="252338683" weight="0.00"/>
    </taz>
    <taz id="114" shape="533957.23,4559229.81 534222.80,4559229.81 534222.80,4560208.45 533957.23,4560208.45 533957.23,4559229.81" color="blue">
        <tazSource id="220234011" weight="1.00"/>
        <tazSink id="220234011" weight="1.00"/>
        <tazSource id="367522274" weight="1.00"/>
        <tazSink id="367522274" weight="1.00"/>
    </taz>
    <taz id="115" shape="534951.61,4558953.61 534997.40,4558953.61 534997.40,4559114.88 534951.61,4559114.88 534951.61,4558953.61" color="blue">
        <tazSource id="-743539878#1" weight="1.00"/>
        <tazSink id="-743539878#1" weight="1.00"/>
        <tazSource id="743539878#0" weight="1.00"/>
        <tazSink id="743539878#0" weight="1.00"/>
    </taz>
    <taz id="116" shape="535880.95,4558765.39 536121.29,4558765.39 536121.29,4558858.39 535880.95,4558858.39 535880.95,4558765.39" color="blue">
        <tazSource id="106466616" weight="1.00"/>
        <tazSink id="106466616" weight="1.00"/>
        <tazSource id="161124151" weight="1.00"/>
        <tazSink id="161124151" weight="1.00"/>
    </taz>
    <taz id="117" shape="536172.41,4557202.85 536417.81,4557202.85 536417.81,4557456.33 536172.41,4557456.33 536172.41,4557202.85" color="blue">
        <tazSource id="1016528104" weight="1.00"/>
        <tazSink id="1016528104" weight="1.00"/>
        <tazSource id="1067901821" weight="1.00"/>
        <tazSink id="1067901821" weight="1.00"/>
        <tazSource id="109228442#0" weight="1.00"/>
        <tazSink id="109228442#0" weight="1.00"/>
        <tazSource id="109228442#1" weight="1.00"/>
        <tazSink id="109228442#1" weight="1.00"/>
        <tazSource id="109228442#2" weight="1.00"/>
        <tazSink id="109228442#2" weight="1.00"/>
        <tazSource id="109228442#3" weight="1.00"/>
        <tazSink id="109228442#3" weight="1.00"/>
        <tazSource id="109228442#4" weight="1.00"/>
        <tazSink id="109228442#4" weight="1.00"/>
        <tazSource id="161124227#0" weight="1.00"/>
        <tazSink id="161124227#0" weight="1.00"/>
    </taz>
    <taz id="118" shape="537890.61,4554886.09 538036.50,4554886.09 538036.50,4555598.53 537890.61,4555598.53 537890.61,4554886.09" color="blue">
        <tazSource id="232721626#1" weight="1.00"/>
        <tazSink id="232721626#1" weight="1.00"/>
        <tazSource id="362138136#1" weight="1.00"/>
        <tazSink id="362138136#1" weight="1.00"/>
    </taz>
    <taz id="12" shape="532650.30,4555635.29 532752.74,4555635.29 532752.74,4555736.79 532650.30,4555736.79 532650.30,4555635.29" color="blue">
        <tazSource id="8367098#0" weight="1.00"/>
        <tazSink id="8367098#0" weight="1.00"/>
    </taz>
    <taz id="126" shape="531351.39,4550551.95 531380.65,4550551.95 531380.65,4550996.63 531351.39,4550996.63 531351.39,4550551.95" color="blue">
        <tazSource id="118005645#0" weight="1.00"/>
        <tazSink id="118005645#0" weight="1.00"/>
        <tazSource id="77609678" weight="1.00"/>
        <tazSink id="77609678" weight="1.00"/>
    </taz>
    <taz id="129" shape="533148.37,4549479.08 534353.45,4549479.08 534353.45,4550855.86 533148.37,4550855.86 533148.37,4549479.08" color="blue">
        <tazSource id="95367759#0" weight="1.00"/>
        <tazSink id="95367759#0" weight="1.00"/>
        <tazSource id="95375330#0" weight="1.00"/>
        <tazSink id="95375330#0" weight="1.00"/>
    </taz>
    <taz id="13" shape="533066.61,4555693.24 533135.27,4555693.24 533135.27,4555717.69 533066.61,4555717.69 533066.61,4555693.24" color="blue">
        <tazSource id="207724065#0" weight="1.00"/>
        <tazSink id="207724065#0" weight="1.00"/>
    </taz>
    <taz id="14" shape="531964.26,4555953.50 532385.51,4555953.50 532385.51,4556151.83 531964.26,4556151.83 531964.26,4555953.50" color="blue">
        <tazSource id="215611423#0" weight="1.00"/>
        <tazSink id="215611423#0" weight="1.00"/>
        <tazSource id="8367069#0" weight="1.00"/>
        <tazSink id="8367069#0" weight="1.00"/>
        <tazSource id="8367069#2" weight="1.00"/>
        <tazSink id="8367069#2" weight="1.00"/>
        <tazSource id="8367072#0" weight="1.00"/>
        <tazSink id="8367072#0" weight="1.00"/>
    </taz>
    <taz id="149" shape="535392.19,4547305.53 535662.33,4547305.53 535662.33,4548096.42 535392.19,4548096.42 535392.19,4547305.53" color="blue">
        <tazSource id="139001246" weight="1.00"/>
        <tazSink id="139001246" weight="1.00"/>
        <tazSource id="29043521" weight="1.00"/>
        <tazSink id="29043521" weight="1.00"/>
    </taz>
    <taz id="15" shape="533513.02,4555351.34 533608.29,4555351.34 533608.29,4555538.08 533513.02,4555538.08 533513.02,4555351.34" color="blue">
        <tazSource id="1017147077" weight="1.00"/>
        <tazSink id="1017147077" weight="1.00"/>
        <tazSource id="350915450#5" weight="1.00"/>
        <tazSink id="350915450#5" weight="1.00"/>
        <tazSource id="477534918#0" weight="1.00"/>
        <tazSink id="477534918#0" weight="1.00"/>
    </taz>
    <taz id="155" shape="533481.26,4558136.89 533637.59,4558136.89 533637.59,4558261.88 533481.26,4558261.88 533481.26,4558136.89" color="blue">
        <tazSource id="-1174863220#2" weight="1.00"/>
        <tazSink id="-1174863220#2" weight="1.00"/>
        <tazSource id="-35078501#3" weight="1.00"/>
        <tazSink id="-35078501#3" weight="1.00"/>
        <tazSource id="-35145521#2" weight="1.00"/>
        <tazSink id="-35145521#2" weight="1.00"/>
        <tazSource id="-461925689#8" weight="1.00"/>
        <tazSink id="-461925689#8" weight="1.00"/>
        <tazSource id="1174863220#0" weight="1.00"/>
        <tazSink id="1174863220#0" weight="1.00"/>
        <tazSource id="35078500#0" weight="1.00"/>
        <tazSink id="35078500#0" weight="1.00"/>
        <tazSource id="35078501#2" weight="1.00"/>
        <tazSink id="35078501#2" weight="1.00"/>
        <tazSource id="35145521#0" weight="1.00"/>
        <tazSink id="35145521#0" weight="1.00"/>
        <tazSource id="461925689#7" weight="1.00"/>
        <tazSink id="461925689#7" weight="1.00"/>
    </taz>
    <taz id="158" shape="533656.87,4558516.29 533908.48,4558516.29 533908.48,4559052.10 533656.87,4559052.10 533656.87,4558516.29" color="blue">
        <tazSource id="-667439829#1" weight="1.00"/>
        <tazSink id="-667439829#1" weight="1.00"/>
        <tazSource id="1049614068#0" weight="1.00"/>
        <tazSink id="1049614068#0" weight="1.00"/>
        <tazSource id="1049614068#2" weight="1.00"/>
        <tazSink id="1049614068#2" weight="1.00"/>
        <tazSource id="667439829#0" weight="1.00"/>
        <tazSink id="667439829#0" weight="1.00"/>
    </taz>
    <taz id="159" shape="533823.41,4555766.25 533895.83,4555766.25 533895.83,4555914.75 533823.41,4555914.75 533823.41,4555766.25" color="blue">
        <tazSource id="1174835628#0" weight="1.00"/>
        <tazSink id="1174835628#0" weight="1.00"/>
        <tazSource id="336758567#0" weight="1.00"/>
        <tazSink id="336758567#0" weight="1.00"/>
        <tazSource id="482324635" weight="1.00"/>
        <tazSink id="482324635" weight="1.00"/>
        <tazSource id="549266406#0" weight="1.00"/>
        <tazSink id="549266406#0" weight="1.00"/>
    </taz>
    <taz id="16" shape="534043.73,4555391.06 534094.32,4555391.06 534094.32,4555562.48 534043.73,4555562.48 534043.73,4555391.06" color="blue">
        <tazSource id="14334234#0" weight="1.00"/>
        <tazSink id="14334234#0" weight="1.00"/>
        <tazSource id="14334291#0" weight="1.00"/>
        <tazSink id="14334291#0" weight="1.00"/>
    </taz>
    <taz id="160" shape="530092.25,4554463.48 530357.44,4554463.48 530357.44,4554911.14 530092.25,4554911.14 530092.25,4554463.48" color="blue">
        <tazSource id="1082071535" weight="1.00"/>
        <tazSink id="1082071535" weight="1.00"/>
        <tazSource id="98835987" weight="1.00"/>
        <tazSink id="98835987" weight="1.00"/>
        <tazSource id="99016660" weight="1.00"/>
        <tazSink id="99016660" weight="1.00"/>
        <tazSource id="99016736" weight="1.00"/>
        <tazSink id="99016736" weight="1.00"/>
        <tazSource id="99256719" weight="1.00"/>
        <tazSink id="99256719" weight="1.00"/>
    </taz>
    <taz id="161" shape="530480.39,4552876.42 530671.63,4552876.42 530671.63,4553106.54 530480.39,4553106.54 530480.39,4552876.42" color="blue">
        <tazSource id="-54509444" weight="0.00"/>
        <tazSink id="-54509444" weight="1.00"/>
        <tazSource id="54375651#0" weight="0.00"/>
        <tazSink id="54375651#0" weight="1.00"/>
        <tazSource id="54375654" weight="1.00"/>
        <tazSink id="54375654" weight="0.00"/>
        <tazSource id="54509444" weight="1.00"/>
        <tazSink id="54509444" weight="0.00"/>
    </taz>
    <taz id="162" shape="531434.69,4551984.37 531619.77,4551984.37 531619.77,4552111.59 531434.69,4552111.59 531434.69,4551984.37" color="blue">
        <tazSource id="99185124" weight="1.00"/>
        <tazSink id="99185124" weight="0.00"/>
        <tazSource id="99185139" weight="0.00"/>
        <tazSink id="99185139" weight="1.00"/>
        <tazSource id="99185171" weight="1.00"/>
        <tazSink id="99185171" weight="0.00"/>
        <tazSource id="99185260" weight="0.00"/>
        <tazSink id="99185260" weight="1.00"/>
    </taz>
    <taz id="163" shape="531638.05,4552217.85 532038.63,4552217.85 532038.63,4552553.47 531638.05,4552553.47 531638.05,4552217.85" color="blue">
        <tazSource id="1010075428" weight="1.00"/>
        <tazSink id="1010075428" weight="1.00"/>
        <tazSource id="331868361#0" weight="1.00"/>
        <tazSink id="331868361#0" weight="1.00"/>
        <tazSource id="394028171" weight="1.00"/>
        <tazSink id="394028171" weight="1.00"/>
        <tazSource id="54379491" weight="1.00"/>
        <tazSink id="54379491" weight="1.00"/>
        <tazSource id="95841114" weight="1.00"/>
        <tazSink id="95841114" weight="1.00"/>
    </taz>
    <taz id="164" shape="532730.28,4552614.68 533448.41,4552614.68 533448.41,4552976.86 532730.28,4552976.86 532730.28,4552614.68" color="blue">
        <tazSource id="1174689797" weight="0.00"/>
        <tazSink id="1174689797" weight="1.00"/>
        <tazSource id="1174689802" weight="1.00"/>
        <tazSink id="1174689802" weight="0.00"/>
        <tazSource id="95117790" weight="1.00"/>
        <tazSink id="95117790" weight="0.00"/>
        <tazSource id="95117793" weight="0.00"/>
        <tazSink id="95117793" weight="1.00"/>
        <tazSource id="95117799" weight="1.00"/>
        <tazSink id="95117799" weight="0.00"/>
        <tazSource id="95984862" weight="0.00"/>
        <tazSink id="95984862" weight="1.00"/>
        <tazSource id="97721364" weight="0.00"/>
        <tazSink id="97721364" weight="1.00"/>
        <tazSource id="97721395" weight="1.00"/>
        <tazSink id="97721395" weight="0.00"/>
    </taz>
    <taz id="165" shape="533770.40,4552863.65 534360.56,4552863.65 534360.56,4553369.03 533770.40,4553369.03 533770.40,4552863.65" color="blue">
        <tazSource id="139455428" weight="1.00"/>
        <tazSink id="139455428" weight="1.00"/>
        <tazSource id="139455441" weight="1.00"/>
        <tazSink id="139455441" weight="1.00"/>
        <tazSource id="139455445" weight="1.00"/>
        <tazSink id="139455445" weight="1.00"/>
        <tazSource id="139455455" weight="1.00"/>
        <tazSink id="139455455" weight="1.00"/>
        <tazSource id="139465323" weight="1.00"/>
        <tazSink id="139465323" weight="1.00"/>
        <tazSource id="95984899" weight="1.00"/>
        <tazSink id="95984899" weight="1.00"/>
        <tazSource id="95984936" weight="1.00"/>
        <tazSink id="95984936" weight="1.00"/>
        <tazSource id="95984945" weight="1.00"/>
        <tazSink id="95984945" weight="1.00"/>
    </taz>
    <taz id="166" shape="532986.46,4550814.17 533176.46,4550814.17 533176.46,4551326.18 532986.46,4551326.18 532986.46,4550814.17" color="blue">
        <tazSource id="414033477" weight="1.00"/>
        <tazSink id="414033477" weight="0.00"/>
        <tazSource id="557707282" weight="0.00"/>
        <tazSink id="557707282" weight="1.00"/>
        <tazSource id="557707284" weight="0.00"/>
        <tazSink id="557707284" weight="1.00"/>
        <tazSource id="557730376" weight="1.00"/>
        <tazSink id="557730376" weight="0.00"/>
    </taz>
    <taz id="167" shape="535943.82,4549794.48 536419.86,4549794.48 536419.86,4550501.65 535943.82,4550501.65 535943.82,4549794.48" color="blue">
        <tazSource id="139462604" weight="1.00"/>
        <tazSink id="139462604" weight="1.00"/>
        <tazSource id="139462608" weight="1.00"/>
        <tazSink id="139462608" weight="1.00"/>
        <tazSource id="139462611" weight="1.00"/>
        <tazSink id="139462611" weight="1.00"/>
        <tazSource id="139462618" weight="1.00"/>
        <tazSink id="139462618" weight="1.00"/>
        <tazSource id="139462629" weight="1.00"/>
        <tazSink id="139462629" weight="1.00"/>
        <tazSource id="139462631" weight="1.00"/>
        <tazSink id="139462631" weight="1.00"/>
        <tazSource id="139465320" weight="1.00"/>
        <tazSink id="139465320" weight="1.00"/>
        <tazSource id="29043396" weight="1.00"/>
        <tazSink id="29043396" weight="1.00"/>
    </taz>
    <taz id="168" shape="535519.18,4548660.39 535811.61,4548660.39 535811.61,4549126.63 535519.18,4549126.63 535519.18,4548660.39" color="blue">
        <tazSource id="1078888525" weight="1.00"/>
        <tazSink id="1078888525" weight="1.00"/>
        <tazSource id="484781497" weight="1.00"/>
        <tazSink id="484781497" weight="1.00"/>
    </taz>
    <taz id="169" shape="535518.75,4548068.11 535943.11,4548068.11 535943.11,4548489.74 535518.75,4548489.74 535518.75,4548068.11" color="blue">
        <tazSource id="139002080" weight="1.00"/>
        <tazSink id="139002080" weight="1.00"/>
        <tazSource id="160524858" weight="1.00"/>
        <tazSink id="160524858" weight="1.00"/>
    </taz>
    <taz id="17" shape="534566.75,4555591.78 534721.02,4555591.78 534721.02,4555870.99 534566.75,4555870.99 534566.75,4555591.78" color="blue">
        <tazSource id="42744003#0" weight="1.00"/>
        <tazSink id="42744003#0" weight="1.00"/>
        <tazSource id="42744003#2" weight="1.00"/>
        <tazSink id="42744003#2" weight="1.00"/>
        <tazSource id="740636510#0" weight="1.00"/>
        <tazSink id="740636510#0" weight="1.00"/>
    </taz>
    <taz id="18" shape="534880.65,4554913.41 535280.61,4554913.41 535280.61,4555084.98 534880.65,4555084.98 534880.65,4554913.41" color="blue">
        <tazSource id="-35331288#3" weight="1.00"/>
        <tazSink id="-35331288#3" weight="1.00"/>
        <tazSource id="1137633273#0" weight="1.00"/>
        <tazSink id="1137633273#0" weight="1.00"/>
    </taz>
    <taz id="19" shape="532753.36,4554366.05 534704.57,4554366.05 534704.57,4554741.12 532753.36,4554741.12 532753.36,4554366.05" color="blue">
        <tazSource id="-252253611#2" weight="1.00"/>
        <tazSink id="-252253611#2" weight="1.00"/>
        <tazSource id="238872916#0" weight="1.00"/>
        <tazSink id="238872916#0" weight="1.00"/>
    </taz>
    <taz id="2" shape="533040.89,4555240.48 533173.29,4555240.48 533173.29,4555291.99 533040.89,4555291.99 533040.89,4555240.48" color="blue">
        <tazSource id="-239593895#2" weight="1.00"/>
        <tazSink id="-239593895#2" weight="1.00"/>
        <tazSource id="-434879926#1" weight="1.00"/>
        <tazSink id="-434879926#1" weight="1.00"/>
        <tazSource id="239593895#0" weight="1.00"/>
        <tazSink id="239593895#0" weight="1.00"/>
        <tazSource id="252526951#3" weight="1.00"/>
        <tazSink id="252526951#3" weight="1.00"/>
        <tazSource id="434879926#0" weight="1.00"/>
        <tazSink id="434879926#0" weight="1.00"/>
    </taz>
    <taz id="20" shape="533975.46,4555050.48 534442.72,4555050.48 534442.72,4555384.34 533975.46,4555384.34 533975.46,4555050.48" color="blue">
        <tazSource id="-31721081#3" weight="1.00"/>
        <tazSink id="-31721081#3" weight="1.00"/>
        <tazSource id="-31721081#8" weight="1.00"/>
        <tazSink id="-31721081#8" weight="1.00"/>
        <tazSource id="1172562979#0" weight="1.00"/>
        <tazSink id="1172562979#0" weight="1.00"/>
        <tazSource id="14334291#4" weight="1.00"/>
        <tazSink id="14334291#4" weight="1.00"/>
        <tazSource id="31721081#1" weight="1.00"/>
        <tazSink id="31721081#1" weight="1.00"/>
        <tazSource id="31721081#4" weight="1.00"/>
        <tazSink id="31721081#4" weight="1.00"/>
    </taz>
    <taz id="21" shape="533630.02,4554792.94 533777.20,4554792.94 533777.20,4555021.97 533630.02,4555021.97 533630.02,4554792.94" color="blue">
        <tazSource id="14333991#0" weight="1.00"/>
        <tazSink id="14333991#0" weight="1.00"/>
        <tazSource id="14334086" weight="1.00"/>
        <tazSink id="14334086" weight="1.00"/>
        <tazSource id="261980633" weight="1.00"/>
        <tazSink id="261980633" weight="1.00"/>
        <tazSource id="474655384" weight="1.00"/>
        <tazSink id="474655384" weight="1.00"/>
    </taz>
    <taz id="22" shape="533562.20,4555857.47 533638.12,4555857.47 533638.12,4556236.17 533562.20,4556236.17 533562.20,4555857.47" color="blue">
        <tazSource id="1174855823#0" weight="1.00"/>
        <tazSink id="1174855823#0" weight="1.00"/>
        <tazSource id="8367164#0" weight="1.00"/>
        <tazSink id="8367164#0" weight="1.00"/>
        <tazSource id="899748480#0" weight="1.00"/>
        <tazSink id="899748480#0" weight="1.00"/>
    </taz>
    <taz id="23" shape="533293.94,4556122.54 533411.69,4556122.54 533411.69,4556510.12 533293.94,4556510.12 533293.94,4556122.54" color="blue">
        <tazSource id="-453762039#3" weight="1.00"/>
        <tazSink id="-453762039#3" weight="1.00"/>
        <tazSource id="-453762039#5" weight="1.00"/>
        <tazSink id="-453762039#5" weight="1.00"/>
        <tazSource id="34613951#0" weight="1.00"/>
        <tazSink id="34613951#0" weight="1.00"/>
        <tazSource id="453762039#0" weight="1.00"/>
        <tazSink id="453762039#0" weight="1.00"/>
        <tazSource id="453762039#4" weight="1.00"/>
        <tazSink id="453762039#4" weight="1.00"/>
    </taz>
    <taz id="24" shape="533419.36,4556588.02 533694.78,4556588.02 533694.78,4556951.09 533419.36,4556951.09 533419.36,4556588.02" color="blue">
        <tazSource id="-1017147075#1" weight="1.00"/>
        <tazSink id="-1017147075#1" weight="1.00"/>
        <tazSource id="-27292882#1" weight="1.00"/>
        <tazSink id="-27292882#1" weight="1.00"/>
        <tazSource id="1016548266" weight="1.00"/>
        <tazSink id="1016548266" weight="1.00"/>
        <tazSource id="1017147075#1" weight="1.00"/>
        <tazSink id="1017147075#1" weight="1.00"/>
        <tazSource id="13265074#0" weight="1.00"/>
        <tazSink id="13265074#0" weight="1.00"/>
        <tazSource id="27292882#0" weight="1.00"/>
        <tazSink id="27292882#0" weight="1.00"/>
    </taz>
    <taz id="25" shape="534038.34,4557148.87 534179.55,4557148.87 534179.55,4557382.74 534038.34,4557382.74 534038.34,4557148.87" color="blue">
        <tazSource id="-450408440#0" weight="1.00"/>
        <tazSink id="-450408440#0" weight="1.00"/>
        <tazSource id="-450408440#1" weight="1.00"/>
        <tazSink id="-450408440#1" weight="1.00"/>
        <tazSource id="34851065" weight="1.00"/>
        <tazSink id="34851065" weight="1.00"/>
        <tazSource id="450408440#0" weight="1.00"/>
        <tazSink id="450408440#0" weight="1.00"/>
        <tazSource id="450408440#1" weight="1.00"/>
        <tazSink id="450408440#1" weight="1.00"/>
    </taz>
    <taz id="26" shape="533708.28,4556667.55 534499.79,4556667.55 534499.79,4557358.71 533708.28,4557358.71 533708.28,4556667.55" color="blue">
        <tazSource id="113804667#0" weight="1.00"/>
        <tazSink id="113804667#0" weight="1.00"/>
        <tazSource id="1165311282" weight="1.00"/>
        <tazSink id="1165311282" weight="1.00"/>
        <tazSource id="1165311283" weight="1.00"/>
        <tazSink id="1165311283" weight="1.00"/>
        <tazSource id="1165311284" weight="1.00"/>
        <tazSink id="1165311284" weight="1.00"/>
        <tazSource id="1165311285" weight="1.00"/>
        <tazSink id="1165311285" weight="1.00"/>
        <tazSource id="1165311286" weight="1.00"/>
        <tazSink id="1165311286" weight="1.00"/>
        <tazSource id="1174565656" weight="1.00"/>
        <tazSink id="1174565656" weight="1.00"/>
        <tazSource id="27293098#0" weight="1.00"/>
        <tazSink id="27293098#0" weight="1.00"/>
        <tazSource id="546885674" weight="1.00"/>
        <tazSink id="546885674" weight="1.00"/>
        <tazSource id="765586392#0" weight="1.00"/>
        <tazSink id="765586392#0" weight="1.00"/>
        <tazSource id="765586392#2" weight="1.00"/>
        <tazSink id="765586392#2" weight="1.00"/>
    </taz>
    <taz id="27" shape="534368.08,4556620.08 534717.01,4556620.08 534717.01,4556868.83 534368.08,4556868.83 534368.08,4556620.08" color="blue">
        <tazSource id="-106278871#0" weight="1.00"/>
        <tazSink id="-106278871#0" weight="1.00"/>
        <tazSource id="-106278871#1" weight="1.00"/>
        <tazSink id="-106278871#1" weight="1.00"/>
        <tazSource id="-35429390#0" weight="1.00"/>
        <tazSink id="-35429390#0" weight="1.00"/>
        <tazSource id="106278871#0" weight="1.00"/>
        <tazSink id="106278871#0" weight="1.00"/>
        <tazSource id="106278871#1" weight="1.00"/>
        <tazSink id="106278871#1" weight="1.00"/>
        <tazSource id="30417991#0" weight="1.00"/>
        <tazSink id="30417991#0" weight="1.00"/>
        <tazSource id="35429390#0" weight="1.00"/>
        <tazSink id="35429390#0" weight="1.00"/>
    </taz>
    <taz id="28" shape="534309.65,4556218.73 534800.10,4556218.73 534800.10,4556353.90 534309.65,4556353.90 534309.65,4556218.73" color="blue">
        <tazSource id="252543082#1" weight="1.00"/>
        <tazSink id="252543082#1" weight="1.00"/>
        <tazSource id="252543082#2" weight="1.00"/>
        <tazSink id="252543082#2" weight="1.00"/>
        <tazSource id="35379625" weight="1.00"/>
        <tazSink id="35379625" weight="1.00"/>
    </taz>
    <taz id="29" shape="533966.81,4556090.17 534050.60,4556090.17 534050.60,4556192.68 533966.81,4556192.68 533966.81,4556090.17" color="blue">
        <tazSource id="35330759#0" weight="1.00"/>
        <tazSink id="35330759#0" weight="1.00"/>
        <tazSource id="549266399#0" weight="1.00"/>
        <tazSink id="549266399#0" weight="1.00"/>
        <tazSource id="549266400#0" weight="1.00"/>
        <tazSink id="549266400#0" weight="1.00"/>
    </taz>
    <taz id="3" shape="532879.61,4554624.79 533223.16,4554624.79 533223.16,4554747.77 532879.61,4554747.77 532879.61,4554624.79" color="blue">
        <tazSource id="-1027278835#2" weight="1.00"/>
        <tazSink id="-1027278835#2" weight="1.00"/>
        <tazSource id="-211641909#1" weight="1.00"/>
        <tazSink id="-211641909#1" weight="1.00"/>
        <tazSource id="-553528125" weight="1.00"/>
        <tazSink id="-553528125" weight="1.00"/>
        <tazSource id="154505299" weight="1.00"/>
        <tazSink id="154505299" weight="1.00"/>
        <tazSource id="211641911" weight="1.00"/>
        <tazSink id="211641911" weight="1.00"/>
        <tazSource id="460206500#0" weight="1.00"/>
        <tazSink id="460206500#0" weight="1.00"/>
        <tazSource id="482327709#0" weight="1.00"/>
        <tazSink id="482327709#0" weight="1.00"/>
        <tazSource id="553528125" weight="1.00"/>
        <tazSink id="553528125" weight="1.00"/>
    </taz>
    <taz id="30" shape="531619.06,4556896.18 531859.78,4556896.18 531859.78,4557076.16 531619.06,4557076.16 531619.06,4556896.18" color="blue">
        <tazSource id="-1174863224#1" weight="1.00"/>
        <tazSink id="-1174863224#1" weight="1.00"/>
        <tazSource id="-448195881#3" weight="1.00"/>