<additional>
	<tazs>
		<taz id="1">
			<tazSource id="1699197" weight="1"/>
			<tazSink id="1699197" weight="1"/>
			<tazSource id="1729903" weight="1"/>
			<tazSink id="1729903" weight="1"/>
			<tazSource id="-1729903" weight="1"/>
			<tazSink id="-1729903" weight="1"/>
			<tazSource id="1699197" weight="1"/>
			<tazSink id="1699197" weight="1"/>
			<tazSource id="1729903" weight="1"/>
			<tazSink id="1729903" weight="1"/>
			<tazSource id="-1729903" weight="1"/>
			<tazSink id="-1729903" weight="1"/>
		</taz>

		<taz id="2">
			<tazSource id="1692506" weight="1"/>
			<tazSink id="1692506" weight="1"/>
			<tazSource id="1692507" weight="1"/>
			<tazSink id="1692507" weight="1"/>
			<tazSource id="1692506" weight="1"/>
			<tazSink id="1692506" weight="1"/>
			<tazSource id="1692507" weight="1"/>
			<tazSink id="1692507" weight="1"/>
		</taz>

		<taz id="3">
			<tazSource id="1054317" weight="1"/>
			<tazSink id="1054317" weight="1"/>
			<tazSource id="-1054317" weight="1"/>
			<tazSink id="-1054317" weight="1"/>
			<tazSource id="1054316" weight="1"/>
			<tazSink id="1054316" weight="1"/>
			<tazSource id="-1054316" weight="1"/>
			<tazSink id="-1054316" weight="1"/>
			<tazSource id="1489054" weight="1"/>
			<tazSink id="1489054" weight="1"/>
			<tazSource id="1489055" weight="1"/>
			<tazSink id="1489055" weight="1"/>
			<tazSource id="1054317" weight="1"/>
			<tazSink id="1054317" weight="1"/>
			<tazSource id="-1054317" weight="1"/>
			<tazSink id="-1054317" weight="1"/>
			<tazSource id="1054316" weight="1"/>
			<tazSink id="1054316" weight="1"/>
			<tazSource id="-1054316" weight="1"/>
			<tazSink id="-1054316" weight="1"/>
			<tazSource id="1489054" weight="1"/>
			<tazSink id="1489054" weight="1"/>
			<tazSource id="1489055" weight="1"/>
			<tazSink id="1489055" weight="1"/>
		</taz>

		<taz id="4">
			<tazSource id="1063132" weight="1"/>
			<tazSink id="1063132" weight="1"/>
			<tazSource id="-1063132" weight="1"/>
			<tazSink id="-1063132" weight="1"/>
			<tazSource id="1063133" weight="1"/>
			<tazSink id="1063133" weight="1"/>
			<tazSource id="-1063133" weight="1"/>
			<tazSink id="-1063133" weight="1"/>
			<tazSource id="1063132" weight="1"/>
			<tazSink id="1063132" weight="1"/>
			<tazSource id="-1063132" weight="1"/>
			<tazSink id="-1063132" weight="1"/>
			<tazSource id="1063133" weight="1"/>
			<tazSink id="1063133" weight="1"/>
			<tazSource id="-1063133" weight="1"/>
			<tazSink id="-1063133" weight="1"/>
		</taz>

		<taz id="5">
			<tazSource id="1952706" weight="1"/>
			<tazSink id="1952706" weight="1"/>
			<tazSource id="-1952706" weight="1"/>
			<tazSink id="-1952706" weight="1"/>
			<tazSource id="1888687" weight="1"/>
			<tazSink id="1888687" weight="1"/>
			<tazSource id="-1888687" weight="1"/>
			<tazSink id="-1888687" weight="1"/>
			<tazSource id="1952707" weight="1"/>
			<tazSink id="1952707" weight="1"/>
			<tazSource id="-1952707" weight="1"/>
			<tazSink id="-1952707" weight="1"/>
			<tazSource id="1952706" weight="1"/>
			<tazSink id="1952706" weight="1"/>
			<tazSource id="-1952706" weight="1"/>
			<tazSink id="-1952706" weight="1"/>
			<tazSource id="1888687" weight="1"/>
			<tazSink id="1888687" weight="1"/>
			<tazSource id="-1888687" weight="1"/>
			<tazSink id="-1888687" weight="1"/>
			<tazSource id="1952707" weight="1"/>
			<tazSink id="1952707" weight="1"/>
			<tazSource id="-1952707" weight="1"/>
			<tazSink id="-1952707" weight="1"/>
		</taz>

		<taz id="6">
			<tazSource id="1019931" weight="1"/>
			<tazSink id="1019931" weight="1"/>
			<tazSource id="-1019931" weight="1"/>
			<tazSink id="-1019931" weight="1"/>
			<tazSource id="1019574" weight="1"/>
			<tazSink id="1019574" weight="1"/>
			<tazSource id="1019929" weight="1"/>
			<tazSink id="1019929" weight="1"/>
			<tazSource id="-1019929" weight="1"/>
			<tazSink id="-1019929" weight="1"/>
			<tazSource id="1019931" weight="1"/>
			<tazSink id="1019931" weight="1"/>
			<tazSource id="-1019931" weight="1"/>
			<tazSink id="-1019931" weight="1"/>
			<tazSource id="1019574" weight="1"/>
			<tazSink id="1019574" weight="1"/>
			<tazSource id="1019929" weight="1"/>
			<tazSink id="1019929" weight="1"/>
			<tazSource id="-1019929" weight="1"/>
			<tazSink id="-1019929" weight="1"/>
		</taz>

		<taz id="7">
			<tazSource id="1278557" weight="1"/>
			<tazSink id="1278557" weight="1"/>
			<tazSource id="1278555" weight="1"/>
			<tazSink id="1278555" weight="1"/>
			<tazSource id="1082066" weight="1"/>
			<tazSink id="1082066" weight="1"/>
			<tazSource id="1278557" weight="1"/>
			<tazSink id="1278557" weight="1"/>
			<tazSource id="1278555" weight="1"/>
			<tazSink id="1278555" weight="1"/>
			<tazSource id="1082066" weight="1"/>
			<tazSink id="1082066" weight="1"/>
		</taz>

		<taz id="8">
			<tazSource id="1192741" weight="1"/>
			<tazSink id="1192741" weight="1"/>
			<tazSource id="-1192741" weight="1"/>
			<tazSink id="-1192741" weight="1"/>
			<tazSource id="1192743" weight="1"/>
			<tazSink id="1192743" weight="1"/>
			<tazSource id="-1192743" weight="1"/>
			<tazSink id="-1192743" weight="1"/>
			<tazSource id="1192741" weight="1"/>
			<tazSink id="1192741" weight="1"/>
			<tazSource id="-1192741" weight="1"/>
			<tazSink id="-1192741" weight="1"/>
			<tazSource id="1192743" weight="1"/>
			<tazSink id="1192743" weight="1"/>
			<tazSource id="-1192743" weight="1"/>
			<tazSink id="-1192743" weight="1"/>
		</taz>

		<taz id="9">
			<tazSource id="1020219" weight="1"/>
			<tazSink id="1020219" weight="1"/>
			<tazSource id="1020221" weight="1"/>
			<tazSink id="1020221" weight="1"/>
			<tazSource id="1498087" weight="1"/>
			<tazSink id="1498087" weight="1"/>
			<tazSource id="1020219" weight="1"/>
			<tazSink id="1020219" weight="1"/>
			<tazSource id="1020221" weight="1"/>
			<tazSink id="1020221" weight="1"/>
			<tazSource id="1498087" weight="1"/>
			<tazSink id="1498087" weight="1"/>
		</taz>

		<taz id="10">
			<tazSource id="1708499" weight="1"/>
			<tazSink id="1708499" weight="1"/>
			<tazSource id="1041981" weight="1"/>
			<tazSink id="1041981" weight="1"/>
			<tazSource id="1706145" weight="1"/>
			<tazSink id="1706145" weight="1"/>
			<tazSource id="1708499" weight="1"/>
			<tazSink id="1708499" weight="1"/>
			<tazSource id="1041981" weight="1"/>
			<tazSink id="1041981" weight="1"/>
			<tazSource id="1706145" weight="1"/>
			<tazSink id="1706145" weight="1"/>
		</taz>

		<taz id="11">
			<tazSource id="1840595" weight="1"/>
			<tazSink id="1840595" weight="1"/>
			<tazSource id="1018417" weight="1"/>
			<tazSink id="1018417" weight="1"/>
			<tazSource id="1117839" weight="1"/>
			<tazSink id="1117839" weight="1"/>
			<tazSource id="1347346" weight="1"/>
			<tazSink id="1347346" weight="1"/>
			<tazSource id="1018420" weight="1"/>
			<tazSink id="1018420" weight="1"/>
			<tazSource id="1018418" weight="1"/>
			<tazSink id="1018418" weight="1"/>
			<tazSource id="1840595" weight="1"/>
			<tazSink id="1840595" weight="1"/>
			<tazSource id="1018417" weight="1"/>
			<tazSink id="1018417" weight="1"/>
			<tazSource id="1117839" weight="1"/>
			<tazSink id="1117839" weight="1"/>
			<tazSource id="1347346" weight="1"/>
			<tazSink id="1347346" weight="1"/>
			<tazSource id="1018420" weight="1"/>
			<tazSink id="1018420" weight="1"/>
			<tazSource id="1018418" weight="1"/>
			<tazSink id="1018418" weight="1"/>
		</taz>

		<taz id="12">
			<tazSource id="1020451" weight="1"/>
			<tazSink id="1020451" weight="1"/>
			<tazSource id="1020224" weight="1"/>
			<tazSink id="1020224" weight="1"/>
			<tazSource id="1556110" weight="1"/>
			<tazSink id="1556110" weight="1"/>
			<tazSource id="1018444" weight="1"/>
			<tazSink id="1018444" weight="1"/>
			<tazSource id="1020451" weight="1"/>
			<tazSink id="1020451" weight="1"/>
			<tazSource id="1020224" weight="1"/>
			<tazSink id="1020224" weight="1"/>
			<tazSource id="1556110" weight="1"/>
			<tazSink id="1556110" weight="1"/>
			<tazSource id="1018444" weight="1"/>
			<tazSink id="1018444" weight="1"/>
		</taz>

		<taz id="13">
			<tazSource id="1693941" weight="1"/>
			<tazSink id="1693941" weight="1"/>
			<tazSource id="1693940" weight="1"/>
			<tazSink id="1693940" weight="1"/>
			<tazSource id="1693941" weight="1"/>
			<tazSink id="1693941" weight="1"/>
			<tazSource id="1693940" weight="1"/>
			<tazSink id="1693940" weight="1"/>
		</taz>

		<taz id="14">
			<tazSource id="1018423" weight="1"/>
			<tazSink id="1018423" weight="1"/>
			<tazSource id="1018429" weight="1"/>
			<tazSink id="1018429" weight="1"/>
			<tazSource id="1018422" weight="1"/>
			<tazSink id="1018422" weight="1"/>
			<tazSource id="1706597" weight="1"/>
			<tazSink id="1706597" weight="1"/>
			<tazSource id="1018423" weight="1"/>
			<tazSink id="1018423" weight="1"/>
			<tazSource id="1018429" weight="1"/>
			<tazSink id="1018429" weight="1"/>
			<tazSource id="1018422" weight="1"/>
			<tazSink id="1018422" weight="1"/>
			<tazSource id="1706597" weight="1"/>
			<tazSink id="1706597" weight="1"/>
		</taz>

		<taz id="15">
			<tazSource id="1953801" weight="1"/>
			<tazSink id="1953801" weight="1"/>
			<tazSource id="1065877" weight="1"/>
			<tazSink id="1065877" weight="1"/>
			<tazSource id="-1065877" weight="1"/>
			<tazSink id="-1065877" weight="1"/>
			<tazSource id="1953800" weight="1"/>
			<tazSink id="1953800" weight="1"/>
			<tazSource id="1953801" weight="1"/>
			<tazSink id="1953801" weight="1"/>
			<tazSource id="1065877" weight="1"/>
			<tazSink id="1065877" weight="1"/>
			<tazSource id="-1065877" weight="1"/>
			<tazSink id="-1065877" weight="1"/>
			<tazSource id="1953800" weight="1"/>
			<tazSink id="1953800" weight="1"/>
		</taz>

		<taz id="16">
			<tazSource id="1020602" weight="1"/>
			<tazSink id="1020602" weight="1"/>
			<tazSource id="1020593" weight="1"/>
			<tazSink id="1020593" weight="1"/>
			<tazSource id="1020601" weight="1"/>
			<tazSink id="1020601" weight="1"/>
			<tazSource id="1020602" weight="1"/>
			<tazSink id="1020602" weight="1"/>
			<tazSource id="1020593" weight="1"/>
			<tazSink id="1020593" weight="1"/>
			<tazSource id="1020601" weight="1"/>
			<tazSink id="1020601" weight="1"/>
		</taz>

		<taz id="17">
			<tazSource id="2013073" weight="1"/>
			<tazSink id="2013073" weight="1"/>
			<tazSource id="1092206" weight="1"/>
			<tazSink id="1092206" weight="1"/>
			<tazSource id="2013073" weight="1"/>
			<tazSink id="2013073" weight="1"/>
			<tazSource id="1092206" weight="1"/>
			<tazSink id="1092206" weight="1"/>
		</taz>

		<taz id="18">
			<tazSource id="1063274" weight="1"/>
			<tazSink id="1063274" weight="1"/>
			<tazSource id="-1063274" weight="1"/>
			<tazSink id="-1063274" weight="1"/>
			<tazSource id="1063319" weight="1"/>
			<tazSink id="1063319" weight="1"/>
			<tazSource id="-1063319" weight="1"/>
			<tazSink id="-1063319" weight="1"/>
			<tazSource id="1063274" weight="1"/>
			<tazSink id="1063274" weight="1"/>
			<tazSource id="-1063274" weight="1"/>
			<tazSink id="-1063274" weight="1"/>
			<tazSource id="1063319" weight="1"/>
			<tazSink id="1063319" weight="1"/>
			<tazSource id="-1063319" weight="1"/>
			<tazSink id="-1063319" weight="1"/>
		</taz>

		<taz id="19">
			<tazSource id="1761309" weight="1"/>
			<tazSink id="1761309" weight="1"/>
			<tazSource id="-1761309" weight="1"/>
			<tazSink id="-1761309" weight="1"/>
			<tazSource id="1795901" weight="1"/>
			<tazSink id="1795901" weight="1"/>
			<tazSource id="-1795901" weight="1"/>
			<tazSink id="-1795901" weight="1"/>
			<tazSource id="1761309" weight="1"/>
			<tazSink id="1761309" weight="1"/>
			<tazSource id="-1761309" weight="1"/>
			<tazSink id="-1761309" weight="1"/>
			<tazSource id="1795901" weight="1"/>
			<tazSink id="1795901" weight="1"/>
			<tazSource id="-1795901" weight="1"/>
			<tazSink id="-1795901" weight="1"/>
		</taz>

		<taz id="20">
			<tazSource id="1055987" weight="1"/>
			<tazSink id="1055987" weight="1"/>
			<tazSource id="-1055987" weight="1"/>
			<tazSink id="-1055987" weight="1"/>
			<tazSource id="1020604" weight="1"/>
			<tazSink id="1020604" weight="1"/>
			<tazSource id="1055989" weight="1"/>
			<tazSink id="1055989" weight="1"/>
			<tazSource id="-1055989" weight="1"/>
			<tazSink id="-1055989" weight="1"/>
			<tazSource id="1055987" weight="1"/>
			<tazSink id="1055987" weight="1"/>
			<tazSource id="-1055987" weight="1"/>
			<tazSink id="-1055987" weight="1"/>
			<tazSource id="1020604" weight="1"/>
			<tazSink id="1020604" weight="1"/>
			<tazSource id="1055989" weight="1"/>
			<tazSink id="1055989" weight="1"/>
			<tazSource id="-1055989" weight="1"/>
			<tazSink id="-1055989" weight="1"/>
		</taz>

		<taz id="21">
			<tazSource id="1812865" weight="1"/>
			<tazSink id="1812865" weight="1"/>
			<tazSource id="1020586" weight="1"/>
			<tazSink id="1020586" weight="1"/>
			<tazSource id="1020567" weight="1"/>
			<tazSink id="1020567" weight="1"/>
			<tazSource id="1812864" weight="1"/>
			<tazSink id="1812864" weight="1"/>
			<tazSource id="1812865" weight="1"/>
			<tazSink id="1812865" weight="1"/>
			<tazSource id="1020586" weight="1"/>
			<tazSink id="1020586" weight="1"/>
			<tazSource id="1020567" weight="1"/>
			<tazSink id="1020567" weight="1"/>
			<tazSource id="1812864" weight="1"/>
			<tazSink id="1812864" weight="1"/>
		</taz>

		<taz id="22">
			<tazSource id="1953795" weight="1"/>
			<tazSink id="1953795" weight="1"/>
			<tazSource id="1018477" weight="1"/>
			<tazSink id="1018477" weight="1"/>
			<tazSource id="1953794" weight="1"/>
			<tazSink id="1953794" weight="1"/>
			<tazSource id="1953795" weight="1"/>
			<tazSink id="1953795" weight="1"/>
			<tazSource id="1018477" weight="1"/>
			<tazSink id="1018477" weight="1"/>
			<tazSource id="1953794" weight="1"/>
			<tazSink id="1953794" weight="1"/>
		</taz>

		<taz id="23">
			<tazSource id="1020519" weight="1"/>
			<tazSink id="1020519" weight="1"/>
			<tazSource id="-1020519" weight="1"/>
			<tazSink id="-1020519" weight="1"/>
			<tazSource id="1020520" weight="1"/>
			<tazSink id="1020520" weight="1"/>
			<tazSource id="-1020520" weight="1"/>
			<tazSink id="-1020520" weight="1"/>
			<tazSource id="1061998" weight="1"/>
			<tazSink id="1061998" weight="1"/>
			<tazSource id="1020519" weight="1"/>
			<tazSink id="1020519" weight="1"/>
			<tazSource id="-1020519" weight="1"/>
			<tazSink id="-1020519" weight="1"/>
			<tazSource id="1020520" weight="1"/>
			<tazSink id="1020520" weight="1"/>
			<tazSource id="-1020520" weight="1"/>
			<tazSink id="-1020520" weight="1"/>
			<tazSource id="1061998" weight="1"/>
			<tazSink id="1061998" weight="1"/>
		</taz>

		<taz id="24">
			<tazSource id="1020524" weight="1"/>
			<tazSink id="1020524" weight="1"/>
			<tazSource id="-1020524" weight="1"/>
			<tazSink id="-1020524" weight="1"/>
			<tazSource id="1019876" weight="1"/>
			<tazSink id="1019876" weight="1"/>
			<tazSource id="1047422" weight="1"/>
			<tazSink id="1047422" weight="1"/>
			<tazSource id="-1047422" weight="1"/>
			<tazSink id="-1047422" weight="1"/>
			<tazSource id="1019877" weight="1"/>
			<tazSink id="1019877" weight="1"/>
			<tazSource id="1020524" weight="1"/>
			<tazSink id="1020524" weight="1"/>
			<tazSource id="-1020524" weight="1"/>
			<tazSink id="-1020524" weight="1"/>
			<tazSource id="1019876" weight="1"/>
			<tazSink id="1019876" weight="1"/>
			<tazSource id="1047422" weight="1"/>
			<tazSink id="1047422" weight="1"/>
			<tazSource id="-1047422" weight="1"/>
			<tazSink id="-1047422" weight="1"/>
			<tazSource id="1019877" weight="1"/>
			<tazSink id="1019877" weight="1"/>
		</taz>

		<taz id="25">
			<tazSource id="1047374" weight="1"/>
			<tazSink id="1047374" weight="1"/>
			<tazSource id="-1047374" weight="1"/>
			<tazSink id="-1047374" weight="1"/>
			<tazSource id="1047373" weight="1"/>
			<tazSink id="1047373" weight="1"/>
			<tazSource id="-1047373" weight="1"/>
			<tazSink id="-1047373" weight="1"/>
			<tazSource id="1062314" weight="1"/>
			<tazSink id="1062314" weight="1"/>
			<tazSource id="1047374" weight="1"/>
			<tazSink id="1047374" weight="1"/>
			<tazSource id="-1047374" weight="1"/>
			<tazSink id="-1047374" weight="1"/>
			<tazSource id="1047373" weight="1"/>
			<tazSink id="1047373" weight="1"/>
			<tazSource id="-1047373" weight="1"/>
			<tazSink id="-1047373" weight="1"/>
			<tazSource id="1062314" weight="1"/>
			<tazSink id="1062314" weight="1"/>
		</taz>

		<taz id="26">
			<tazSource id="1282282" weight="1"/>
			<tazSink id="1282282" weight="1"/>
			<tazSource id="1047467" weight="1"/>
			<tazSink id="1047467" weight="1"/>
			<tazSource id="1019875" weight="1"/>
			<tazSink id="1019875" weight="1"/>
			<tazSource id="1047395" weight="1"/>
			<tazSink id="1047395" weight="1"/>
			<tazSource id="1019874" weight="1"/>
			<tazSink id="1019874" weight="1"/>
			<tazSource id="1047394" weight="1"/>
			<tazSink id="1047394" weight="1"/>
			<tazSource id="1282301" weight="1"/>
			<tazSink id="1282301" weight="1"/>
			<tazSource id="1282282" weight="1"/>
			<tazSink id="1282282" weight="1"/>
			<tazSource id="1047467" weight="1"/>
			<tazSink id="1047467" weight="1"/>
			<tazSource id="1019875" weight="1"/>
			<tazSink id="1019875" weight="1"/>
			<tazSource id="1047395" weight="1"/>
			<tazSink id="1047395" weight="1"/>
			<tazSource id="1019874" weight="1"/>
			<tazSink id="1019874" weight="1"/>
			<tazSource id="1047394" weight="1"/>
			<tazSink id="1047394" weight="1"/>
			<tazSource id="1282301" weight="1"/>
			<tazSink id="1282301" weight="1"/>
		</taz>

		<taz id="27">
			<tazSource id="1054323" weight="1"/>
			<tazSink id="1054323" weight="1"/>
			<tazSource id="1253544" weight="1"/>
			<tazSink id="1253544" weight="1"/>
			<tazSource id="-1253544" weight="1"/>
			<tazSink id="-1253544" weight="1"/>
			<tazSource id="1063649" weight="1"/>
			<tazSink id="1063649" weight="1"/>
			<tazSource id="-1063649" weight="1"/>
			<tazSink id="-1063649" weight="1"/>
			<tazSource id="1054323" weight="1"/>
			<tazSink id="1054323" weight="1"/>
			<tazSource id="1253544" weight="1"/>
			<tazSink id="1253544" weight="1"/>
			<tazSource id="-1253544" weight="1"/>
			<tazSink id="-1253544" weight="1"/>
			<tazSource id="1063649" weight="1"/>
			<tazSink id="1063649" weight="1"/>
			<tazSource id="-1063649" weight="1"/>
			<tazSink id="-1063649" weight="1"/>
		</taz>

		<taz id="28">
			<tazSource id="1063119" weight="1"/>
			<tazSink id="1063119" weight="1"/>
			<tazSource id="1063120" weight="1"/>
			<tazSink id="1063120" weight="1"/>
			<tazSource id="1063476" weight="1"/>
			<tazSink id="1063476" weight="1"/>
			<tazSource id="1063119" weight="1"/>
			<tazSink id="1063119" weight="1"/>
			<tazSource id="1063120" weight="1"/>
			<tazSink id="1063120" weight="1"/>
			<tazSource id="1063476" weight="1"/>
			<tazSink id="1063476" weight="1"/>
		</taz>

		<taz id="29">
			<tazSource id="1939861" weight="1"/>
			<tazSink id="1939861" weight="1"/>
			<tazSource id="-1939861" weight="1"/>
			<tazSink id="-1939861" weight="1"/>
			<tazSource id="1063316" weight="1"/>
			<tazSink id="1063316" weight="1"/>
			<tazSource id="1020510" weight="1"/>
			<tazSink id="1020510" weight="1"/>
			<tazSource id="-1020510" weight="1"/>
			<tazSink id="-1020510" weight="1"/>
			<tazSource id="1939861" weight="1"/>
			<tazSink id="1939861" weight="1"/>
			<tazSource id="-1939861" weight="1"/>
			<tazSink id="-1939861" weight="1"/>
			<tazSource id="1063316" weight="1"/>
			<tazSink id="1063316" weight="1"/>
			<tazSource id="1020510" weight="1"/>
			<tazSink id="1020510" weight="1"/>
			<tazSource id="-1020510" weight="1"/>
			<tazSink id="-1020510" weight="1"/>
		</taz>

		<taz id="30">
			<tazSource id="1081806" weight="1"/>
			<tazSink id="1081806" weight="1"/>
			<tazSource id="-1081806" weight="1"/>
			<tazSink id="-1081806" weight="1"/>
			<tazSource id="1796922" weight="1"/>
			<tazSink id="1796922" weight="1"/>
			<tazSource id="1081807" weight="1"/>
			<tazSink id="1081807" weight="1"/>
			<tazSource id="-1081807" weight="1"/>
			<tazSink id="-1081807" weight="1"/>
			<tazSource id="1796923" weight="1"/>
			<tazSink id="1796923" weight="1"/>
			<tazSource id="1081806" weight="1"/>
			<tazSink id="1081806" weight="1"/>
			<tazSource id="-1081806" weight="1"/>
			<tazSink id="-1081806" weight="1"/>
			<tazSource id="1796922" weight="1"/>
			<tazSink id="1796922" weight="1"/>
			<tazSource id="1081807" weight="1"/>
			<tazSink id="1081807" weight="1"/>
			<tazSource id="-1081807" weight="1"/>
			<tazSink id="-1081807" weight="1"/>
			<tazSource id="1796923" weight="1"/>
			<tazSink id="1796923" weight="1"/>
		</taz>

		<taz id="31">
			<tazSource id="1732557" weight="1"/>
			<tazSink id="1732557" weight="1"/>
			<tazSource id="-1732557" weight="1"/>
			<tazSink id="-1732557" weight="1"/>
			<tazSource id="2841999" weight="1"/>
			<tazSink id="2841999" weight="1"/>
			<tazSource id="-2841999" weight="1"/>
			<tazSink id="-2841999" weight="1"/>
			<tazSource id="1063778" weight="1"/>
			<tazSink id="1063778" weight="1"/>
			<tazSource id="-1063778" weight="1"/>
			<tazSink id="-1063778" weight="1"/>
			<tazSource id="1732557" weight="1"/>
			<tazSink id="1732557" weight="1"/>
			<tazSource id="-1732557" weight="1"/>
			<tazSink id="-1732557" weight="1"/>
			<tazSource id="2841999" weight="1"/>
			<tazSink id="2841999" weight="1"/>
			<tazSource id="-2841999" weight="1"/>
			<tazSink id="-2841999" weight="1"/>
			<tazSource id="1063778" weight="1"/>
			<tazSink id="1063778" weight="1"/>
			<tazSource id="-1063778" weight="1"/>
			<tazSink id="-1063778" weight="1"/>
		</taz>

		<taz id="32">
			<tazSource id="1796875" weight="1"/>
			<tazSink id="1796875" weight="1"/>
			<tazSource id="-1796875" weight="1"/>
			<tazSink id="-1796875" weight="1"/>
			<tazSource id="1081749" weight="1"/>
			<tazSink id="1081749" weight="1"/>
			<tazSource id="1796876" weight="1"/>
			<tazSink id="1796876" weight="1"/>
			<tazSource id="-1796876" weight="1"/>
			<tazSink id="-1796876" weight="1"/>
			<tazSource id="1796875" weight="1"/>
			<tazSink id="1796875" weight="1"/>
			<tazSource id="-1796875" weight="1"/>
			<tazSink id="-1796875" weight="1"/>
			<tazSource id="1081749" weight="1"/>
			<tazSink id="1081749" weight="1"/>
			<tazSource id="1796876" weight="1"/>
			<tazSink id="1796876" weight="1"/>
			<tazSource id="-1796876" weight="1"/>
			<tazSink id="-1796876" weight="1"/>
		</taz>

		<taz id="33">
			<tazSource id="1067204" weight="1"/>
			<tazSink id="1067204" weight="1"/>
			<tazSource id="1732563" weight="1"/>
			<tazSink id="1732563" weight="1"/>
			<tazSource id="-1732563" weight="1"/>
			<tazSink id="-1732563" weight="1"/>
			<tazSource id="1062976" weight="1"/>
			<tazSink id="1062976" weight="1"/>
			<tazSource id="-1062976" weight="1"/>
			<tazSink id="-1062976" weight="1"/>
			<tazSource id="1054983" weight="1"/>
			<tazSink id="1054983" weight="1"/>
			<tazSource id="1054961" weight="1"/>
			<tazSink id="1054961" weight="1"/>
			<tazSource id="1732564" weight="1"/>
			<tazSink id="1732564" weight="1"/>
			<tazSource id="-1732564" weight="1"/>
			<tazSink id="-1732564" weight="1"/>
			<tazSource id="1054960" weight="1"/>
			<tazSink id="1054960" weight="1"/>
			<tazSource id="1067204" weight="1"/>
			<tazSink id="1067204" weight="1"/>
			<tazSource id="1732563" weight="1"/>
			<tazSink id="1732563" weight="1"/>
			<tazSource id="-1732563" weight="1"/>
			<tazSink id="-1732563" weight="1"/>
			<tazSource id="1062976" weight="1"/>
			<tazSink id="1062976" weight="1"/>
			<tazSource id="-1062976" weight="1"/>
			<tazSink id="-1062976" weight="1"/>
			<tazSource id="1054983" weight="1"/>
			<tazSink id="1054983" weight="1"/>
			<tazSource id="1054961" weight="1"/>
			<tazSink id="1054961" weight="1"/>
			<tazSource id="1732564" weight="1"/>
			<tazSink id="1732564" weight="1"/>
			<tazSource id="-1732564" weight="1"/>
			<tazSink id="-1732564" weight="1"/>
			<tazSource id="1054960" weight="1"/>
			<tazSink id="1054960" weight="1"/>
		</taz>

		<taz id="34">
			<tazSource id="1063950" weight="1"/>
			<tazSink id="1063950" weight="1"/>
			<tazSource id="-1063950" weight="1"/>
			<tazSink id="-1063950" weight="1"/>
			<tazSource id="1064382" weight="1"/>
			<tazSink id="1064382" weight="1"/>
			<tazSource id="1054922" weight="1"/>
			<tazSink id="1054922" weight="1"/>
			<tazSource id="-1054922" weight="1"/>
			<tazSink id="-1054922" weight="1"/>
			<tazSource id="1063950" weight="1"/>
			<tazSink id="1063950" weight="1"/>
			<tazSource id="-1063950" weight="1"/>
			<tazSink id="-1063950" weight="1"/>
			<tazSource id="1064382" weight="1"/>
			<tazSink id="1064382" weight="1"/>
			<tazSource id="1054922" weight="1"/>
			<tazSink id="1054922" weight="1"/>
			<tazSource id="-1054922" weight="1"/>
			<tazSink id="-1054922" weight="1"/>
		</taz>

		<taz id="35">
			<tazSource id="1054944" weight="1"/>
			<tazSink id="1054944" weight="1"/>
			<tazSource id="-1054944" weight="1"/>
			<tazSink id="-1054944" weight="1"/>
			<tazSource id="1054943" weight="1"/>
			<tazSink id="1054943" weight="1"/>
			<tazSource id="-1054943" weight="1"/>
			<tazSink id="-1054943" weight="1"/>
			<tazSource id="1054942" weight="1"/>
			<tazSink id="1054942" weight="1"/>
			<tazSource id="-1054942" weight="1"/>
			<tazSink id="-1054942" weight="1"/>
			<tazSource id="1054944" weight="1"/>
			<tazSink id="1054944" weight="1"/>
			<tazSource id="-1054944" weight="1"/>
			<tazSink id="-1054944" weight="1"/>
			<tazSource id="1054943" weight="1"/>
			<tazSink id="1054943" weight="1"/>
			<tazSource id="-1054943" weight="1"/>
			<tazSink id="-1054943" weight="1"/>
			<tazSource id="1054942" weight="1"/>
			<tazSink id="1054942" weight="1"/>
			<tazSource id="-1054942" weight="1"/>
			<tazSink id="-1054942" weight="1"/>
		</taz>

		<taz id="36">
			<tazSource id="1054929" weight="1"/>
			<tazSink id="1054929" weight="1"/>
			<tazSource id="1054931" weight="1"/>
			<tazSink id="1054931" weight="1"/>
			<tazSource id="1054930" weight="1"/>
			<tazSink id="1054930" weight="1"/>
			<tazSource id="1054929" weight="1"/>
			<tazSink id="1054929" weight="1"/>
			<tazSource id="1054931" weight="1"/>
			<tazSink id="1054931" weight="1"/>
			<tazSource id="1054930" weight="1"/>
			<tazSink id="1054930" weight="1"/>
		</taz>

		<taz id="37">
			<tazSource id="1715629" weight="1"/>
			<tazSink id="1715629" weight="1"/>
			<tazSource id="1078289" weight="1"/>
			<tazSink id="1078289" weight="1"/>
			<tazSource id="1081614" weight="1"/>
			<tazSink id="1081614" weight="1"/>
			<tazSource id="-1081614" weight="1"/>
			<tazSink id="-1081614" weight="1"/>
			<tazSource id="1227552" weight="1"/>
			<tazSink id="1227552" weight="1"/>
			<tazSource id="1892708" weight="1"/>
			<tazSink id="1892708" weight="1"/>
			<tazSource id="1715629" weight="1"/>
			<tazSink id="1715629" weight="1"/>
			<tazSource id="1078289" weight="1"/>
			<tazSink id="1078289" weight="1"/>
			<tazSource id="1081614" weight="1"/>
			<tazSink id="1081614" weight="1"/>
			<tazSource id="-1081614" weight="1"/>
			<tazSink id="-1081614" weight="1"/>
			<tazSource id="1227552" weight="1"/>
			<tazSink id="1227552" weight="1"/>
			<tazSource id="1892708" weight="1"/>
			<tazSink id="1892708" weight="1"/>
		</taz>

		<taz id="38">
			<tazSource id="1020514" weight="1"/>
			<tazSink id="1020514" weight="1"/>
			<tazSource id="1062117" weight="1"/>
			<tazSink id="1062117" weight="1"/>
			<tazSource id="1020513" weight="1"/>
			<tazSink id="1020513" weight="1"/>
			<tazSource id="1078288" weight="1"/>
			<tazSink id="1078288" weight="1"/>
			<tazSource id="1020514" weight="1"/>
			<tazSink id="1020514" weight="1"/>
			<tazSource id="1062117" weight="1"/>
			<tazSink id="1062117" weight="1"/>
			<tazSource id="1020513" weight="1"/>
			<tazSink id="1020513" weight="1"/>
			<tazSource id="1078288" weight="1"/>
			<tazSink id="1078288" weight="1"/>
		</taz>

		<taz id="39">
			<tazSource id="1020142" weight="1"/>
			<tazSink id="1020142" weight="1"/>
			<tazSource id="-1020142" weight="1"/>
			<tazSink id="-1020142" weight="1"/>
			<tazSource id="1055022" weight="1"/>
			<tazSink id="1055022" weight="1"/>
			<tazSource id="-1055022" weight="1"/>
			<tazSink id="-1055022" weight="1"/>
			<tazSource id="1020143" weight="1"/>
			<tazSink id="1020143" weight="1"/>
			<tazSource id="-1020143" weight="1"/>
			<tazSink id="-1020143" weight="1"/>
			<tazSource id="1081724" weight="1"/>
			<tazSink id="1081724" weight="1"/>
			<tazSource id="-1081724" weight="1"/>
			<tazSink id="-1081724" weight="1"/>
			<tazSource id="1081727" weight="1"/>
			<tazSink id="1081727" weight="1"/>
			<tazSource id="1081725" weight="1"/>
			<tazSink id="1081725" weight="1"/>
			<tazSource id="1020142" weight="1"/>
			<tazSink id="1020142" weight="1"/>
			<tazSource id="-1020142" weight="1"/>
			<tazSink id="-1020142" weight="1"/>
			<tazSource id="1055022" weight="1"/>
			<tazSink id="1055022" weight="1"/>
			<tazSource id="-1055022" weight="1"/>
			<tazSink id="-1055022" weight="1"/>
			<tazSource id="1020143" weight="1"/>
			<tazSink id="1020143" weight="1"/>
			<tazSource id="-1020143" weight="1"/>
			<tazSink id="-1020143" weight="1"/>
			<tazSource id="1081724" weight="1"/>
			<tazSink id="1081724" weight="1"/>
			<tazSource id="-1081724" weight="1"/>
			<tazSink id="-1081724" weight="1"/>
			<tazSource id="1081727" weight="1"/>
			<tazSink id="1081727" weight="1"/>
			<tazSource id="1081725" weight="1"/>
			<tazSink id="1081725" weight="1"/>
		</taz>

		<taz id="40">
			<tazSource id="1796914" weight="1"/>
			<tazSink id="1796914" weight="1"/>
			<tazSource id="1081747" weight="1"/>
			<tazSink id="1081747" weight="1"/>
			<tazSource id="1796915" weight="1"/>
			<tazSink id="1796915" weight="1"/>
			<tazSource id="1796914" weight="1"/>
			<tazSink id="1796914" weight="1"/>
			<tazSource id="1081747" weight="1"/>
			<tazSink id="1081747" weight="1"/>
			<tazSource id="1796915" weight="1"/>
			<tazSink id="1796915" weight="1"/>
		</taz>

		<taz id="41">